/*---------------------------------------------------------------------------*\
  =========                 |
  \\      /  F ield         | OpenFOAM: The Open Source CFD Toolbox
   \\    /   O peration     | Website:  https://openfoam.org
    \\  /    A nd           | Version:  7
     \\/     M anipulation  |
\*---------------------------------------------------------------------------*/
Build  : 7-49b2b3b8b082
Exec   : icoFoam
Date   : Apr 14 2022
Time   : 01:04:16
Host   : "c415-083.stampede2.tacc.utexas.edu"
PID    : 218630
I/O    : uncollated
Case   : /work2/07705/jmj3957/stampede2/COE347FinalProject/Simulations/Incompressible/test
nProcs : 1
sigFpe : Enabling floating point exception trapping (FOAM_SIGFPE).
fileModificationChecking : Monitoring run-time modified files using timeStampMaster (fileModificationSkew 10)
allowSystemOperations : Allowing user-supplied system call operations

// * * * * * * * * * * * * * * * * * * * * * * * * * * * * * * * * * * * * * //
Create time

Create mesh for time = 0

Reading transportProperties

Reading field p

Reading field U

Reading/calculating face flux field phi


Starting time loop

--> FOAM Warning : 
    From function void Foam::probes::findElements(const Foam::fvMesh &)
    in file probes/probes.C at line 119
    Did not find location (0 0 0) in any cell. Skipping location.
Reading set description:
    line1
    line2
    line3
    line4

forces forces:
--> FOAM Warning : 
    From function Foam::HashSet<int, Foam::Hash<int>> Foam::polyBoundaryMesh::patchSet(const Foam::UList<Foam::wordRe> &, bool, bool) const
    in file meshes/polyMesh/polyBoundaryMesh/polyBoundaryMesh.C at line 804
    Cannot find any patch or group names matching cylinder
    Not including porosity effects
forces forceCoeffs:
--> FOAM Warning : 
    From function Foam::HashSet<int, Foam::Hash<int>> Foam::polyBoundaryMesh::patchSet(const Foam::UList<Foam::wordRe> &, bool, bool) const
    in file meshes/polyMesh/polyBoundaryMesh/polyBoundaryMesh.C at line 804
    Cannot find any patch or group names matching cylinder
    Not including porosity effects
forceCoeffs forceCoeffs:
--> FOAM Warning : 
    From function Foam::HashSet<int, Foam::Hash<int>> Foam::polyBoundaryMesh::patchSet(const Foam::UList<Foam::wordRe> &, bool, bool) const
    in file meshes/polyMesh/polyBoundaryMesh/polyBoundaryMesh.C at line 804
    Cannot find any patch or group names matching cylinder
    Not including porosity effects
Time = 0.0005

Courant Number mean: 0.00494486 max: 0.0562941
smoothSolver:  Solving for Ux, Initial residual = 1, Final residual = 3.79136e-08, No Iterations 7
smoothSolver:  Solving for Uy, Initial residual = 0, Final residual = 0, No Iterations 0
DICPCG:  Solving for p, Initial residual = 1, Final residual = 9.56486e-08, No Iterations 179
time step continuity errors : sum local = 2.4851e-13, global = 8.44794e-17, cumulative = 8.44794e-17
DICPCG:  Solving for p, Initial residual = 0.297664, Final residual = 9.58386e-08, No Iterations 168
time step continuity errors : sum local = 1.80923e-12, global = -5.73708e-15, cumulative = -5.6526e-15
ExecutionTime = 2.61 s  ClockTime = 5 s

forces forces write:
    sum of forces:
        pressure : (0 0 0)
        viscous  : (0 0 0)
        porous   : (0 0 0)
    sum of moments:
        pressure : (0 0 0)
        viscous  : (0 0 0)
        porous   : (0 0 0)

forceCoeffs forceCoeffs write:
    Cm    = 0
    Cd    = 0
    Cl    = 0
    Cl(f) = 0
    Cl(r) = 0

Time = 0.001

Courant Number mean: 0.00494597 max: 0.0492217
smoothSolver:  Solving for Ux, Initial residual = 0.182851, Final residual = 1.05865e-08, No Iterations 6
smoothSolver:  Solving for Uy, Initial residual = 0.317732, Final residual = 1.24054e-08, No Iterations 6
DICPCG:  Solving for p, Initial residual = 0.309438, Final residual = 8.48432e-08, No Iterations 167
time step continuity errors : sum local = 1.66601e-12, global = 2.07815e-15, cumulative = -3.57445e-15
DICPCG:  Solving for p, Initial residual = 0.399124, Final residual = 9.82133e-08, No Iterations 168
time step continuity errors : sum local = 9.58718e-13, global = -4.45472e-15, cumulative = -8.02917e-15
ExecutionTime = 2.89 s  ClockTime = 5 s

forces forces write:
    sum of forces:
        pressure : (0 0 0)
        viscous  : (0 0 0)
        porous   : (0 0 0)
    sum of moments:
        pressure : (0 0 0)
        viscous  : (0 0 0)
        porous   : (0 0 0)

forceCoeffs forceCoeffs write:
    Cm    = 0
    Cd    = 0
    Cl    = 0
    Cl(f) = 0
    Cl(r) = 0

Time = 0.0015

Courant Number mean: 0.00494441 max: 0.0467787
smoothSolver:  Solving for Ux, Initial residual = 0.0356046, Final residual = 3.29142e-08, No Iterations 5
smoothSolver:  Solving for Uy, Initial residual = 0.0951689, Final residual = 6.51902e-08, No Iterations 5
DICPCG:  Solving for p, Initial residual = 0.868046, Final residual = 8.99645e-08, No Iterations 168
time step continuity errors : sum local = 4.72047e-13, global = -1.32649e-15, cumulative = -9.35566e-15
DICPCG:  Solving for p, Initial residual = 0.501609, Final residual = 9.2559e-08, No Iterations 166
time step continuity errors : sum local = 3.69496e-13, global = 1.77717e-15, cumulative = -7.57848e-15
ExecutionTime = 3.16 s  ClockTime = 5 s

forces forces write:
    sum of forces:
        pressure : (0 0 0)
        viscous  : (0 0 0)
        porous   : (0 0 0)
    sum of moments:
        pressure : (0 0 0)
        viscous  : (0 0 0)
        porous   : (0 0 0)

forceCoeffs forceCoeffs write:
    Cm    = 0
    Cd    = 0
    Cl    = 0
    Cl(f) = 0
    Cl(r) = 0

Time = 0.002

Courant Number mean: 0.00494252 max: 0.0455088
smoothSolver:  Solving for Ux, Initial residual = 0.0206053, Final residual = 3.48747e-08, No Iterations 5
smoothSolver:  Solving for Uy, Initial residual = 0.0311002, Final residual = 3.85237e-08, No Iterations 5
DICPCG:  Solving for p, Initial residual = 0.745732, Final residual = 8.41073e-08, No Iterations 164
time step continuity errors : sum local = 2.61018e-13, global = 2.9982e-15, cumulative = -4.58028e-15
DICPCG:  Solving for p, Initial residual = 0.488283, Final residual = 7.97497e-08, No Iterations 164
time step continuity errors : sum local = 1.91782e-13, global = -1.69726e-15, cumulative = -6.27754e-15
ExecutionTime = 3.41 s  ClockTime = 5 s

forces forces write:
    sum of forces:
        pressure : (0 0 0)
        viscous  : (0 0 0)
        porous   : (0 0 0)
    sum of moments:
        pressure : (0 0 0)
        viscous  : (0 0 0)
        porous   : (0 0 0)

forceCoeffs forceCoeffs write:
    Cm    = 0
    Cd    = 0
    Cl    = 0
    Cl(f) = 0
    Cl(r) = 0

Time = 0.0025

Courant Number mean: 0.00494105 max: 0.0451364
smoothSolver:  Solving for Ux, Initial residual = 0.0132377, Final residual = 3.41613e-08, No Iterations 5
smoothSolver:  Solving for Uy, Initial residual = 0.0148366, Final residual = 2.68499e-08, No Iterations 5
DICPCG:  Solving for p, Initial residual = 0.665728, Final residual = 8.6514e-08, No Iterations 163
time step continuity errors : sum local = 1.49198e-13, global = 5.77395e-16, cumulative = -5.70014e-15
DICPCG:  Solving for p, Initial residual = 0.5453, Final residual = 9.27202e-08, No Iterations 155
time step continuity errors : sum local = 1.27145e-13, global = 3.36802e-16, cumulative = -5.36334e-15
ExecutionTime = 3.66 s  ClockTime = 6 s

forces forces write:
    sum of forces:
        pressure : (0 0 0)
        viscous  : (0 0 0)
        porous   : (0 0 0)
    sum of moments:
        pressure : (0 0 0)
        viscous  : (0 0 0)
        porous   : (0 0 0)

forceCoeffs forceCoeffs write:
    Cm    = 0
    Cd    = 0
    Cl    = 0
    Cl(f) = 0
    Cl(r) = 0

Time = 0.003

Courant Number mean: 0.00493987 max: 0.0447522
smoothSolver:  Solving for Ux, Initial residual = 0.00874706, Final residual = 2.29211e-08, No Iterations 5
smoothSolver:  Solving for Uy, Initial residual = 0.00945833, Final residual = 2.19177e-08, No Iterations 5
DICPCG:  Solving for p, Initial residual = 0.557548, Final residual = 8.98634e-08, No Iterations 152
time step continuity errors : sum local = 1.07582e-13, global = 1.64743e-16, cumulative = -5.1986e-15
DICPCG:  Solving for p, Initial residual = 0.508438, Final residual = 9.26062e-08, No Iterations 152
time step continuity errors : sum local = 1.01115e-13, global = -3.50704e-16, cumulative = -5.5493e-15
ExecutionTime = 3.9 s  ClockTime = 6 s

forces forces write:
    sum of forces:
        pressure : (0 0 0)
        viscous  : (0 0 0)
        porous   : (0 0 0)
    sum of moments:
        pressure : (0 0 0)
        viscous  : (0 0 0)
        porous   : (0 0 0)

forceCoeffs forceCoeffs write:
    Cm    = 0
    Cd    = 0
    Cl    = 0
    Cl(f) = 0
    Cl(r) = 0

Time = 0.0035

Courant Number mean: 0.00493884 max: 0.0443004
smoothSolver:  Solving for Ux, Initial residual = 0.00617878, Final residual = 1.59367e-08, No Iterations 5
smoothSolver:  Solving for Uy, Initial residual = 0.00813186, Final residual = 2.10683e-08, No Iterations 5
DICPCG:  Solving for p, Initial residual = 0.510997, Final residual = 9.07387e-08, No Iterations 164
time step continuity errors : sum local = 9.10663e-14, global = 9.89656e-16, cumulative = -4.55964e-15
DICPCG:  Solving for p, Initial residual = 0.484295, Final residual = 9.5191e-08, No Iterations 164
time step continuity errors : sum local = 9.19331e-14, global = -7.4343e-16, cumulative = -5.30307e-15
ExecutionTime = 4.16 s  ClockTime = 6 s

forces forces write:
    sum of forces:
        pressure : (0 0 0)
        viscous  : (0 0 0)
        porous   : (0 0 0)
    sum of moments:
        pressure : (0 0 0)
        viscous  : (0 0 0)
        porous   : (0 0 0)

forceCoeffs forceCoeffs write:
    Cm    = 0
    Cd    = 0
    Cl    = 0
    Cl(f) = 0
    Cl(r) = 0

Time = 0.004

Courant Number mean: 0.00493793 max: 0.0441073
smoothSolver:  Solving for Ux, Initial residual = 0.0047623, Final residual = 1.22027e-08, No Iterations 5
smoothSolver:  Solving for Uy, Initial residual = 0.00762201, Final residual = 2.2028e-08, No Iterations 5
DICPCG:  Solving for p, Initial residual = 0.499199, Final residual = 9.37916e-08, No Iterations 166
time step continuity errors : sum local = 8.58209e-14, global = 3.88629e-17, cumulative = -5.26421e-15
DICPCG:  Solving for p, Initial residual = 0.480419, Final residual = 8.54317e-08, No Iterations 166
time step continuity errors : sum local = 7.65118e-14, global = 1.02334e-16, cumulative = -5.16188e-15
ExecutionTime = 4.41 s  ClockTime = 6 s

forces forces write:
    sum of forces:
        pressure : (0 0 0)
        viscous  : (0 0 0)
        porous   : (0 0 0)
    sum of moments:
        pressure : (0 0 0)
        viscous  : (0 0 0)
        porous   : (0 0 0)

forceCoeffs forceCoeffs write:
    Cm    = 0
    Cd    = 0
    Cl    = 0
    Cl(f) = 0
    Cl(r) = 0

Time = 0.0045

Courant Number mean: 0.00493709 max: 0.0438692
smoothSolver:  Solving for Ux, Initial residual = 0.00388582, Final residual = 1.00994e-08, No Iterations 5
smoothSolver:  Solving for Uy, Initial residual = 0.0073233, Final residual = 2.30058e-08, No Iterations 5
DICPCG:  Solving for p, Initial residual = 0.502641, Final residual = 8.49605e-08, No Iterations 167
time step continuity errors : sum local = 7.36544e-14, global = -1.44226e-16, cumulative = -5.3061e-15
DICPCG:  Solving for p, Initial residual = 0.490989, Final residual = 9.88198e-08, No Iterations 166
time step continuity errors : sum local = 8.46749e-14, global = 1.22848e-16, cumulative = -5.18325e-15
ExecutionTime = 4.68 s  ClockTime = 7 s

forces forces write:
    sum of forces:
        pressure : (0 0 0)
        viscous  : (0 0 0)
        porous   : (0 0 0)
    sum of moments:
        pressure : (0 0 0)
        viscous  : (0 0 0)
        porous   : (0 0 0)

forceCoeffs forceCoeffs write:
    Cm    = 0
    Cd    = 0
    Cl    = 0
    Cl(f) = 0
    Cl(r) = 0

Time = 0.005

Courant Number mean: 0.00493632 max: 0.0435847
smoothSolver:  Solving for Ux, Initial residual = 0.0032907, Final residual = 8.63975e-08, No Iterations 4
smoothSolver:  Solving for Uy, Initial residual = 0.00709733, Final residual = 2.38282e-08, No Iterations 5
DICPCG:  Solving for p, Initial residual = 0.517507, Final residual = 9.53738e-08, No Iterations 167
time step continuity errors : sum local = 8.03252e-14, global = -1.47433e-16, cumulative = -5.33069e-15
DICPCG:  Solving for p, Initial residual = 0.510166, Final residual = 9.51539e-08, No Iterations 167
time step continuity errors : sum local = 7.96987e-14, global = 5.31484e-17, cumulative = -5.27754e-15
ExecutionTime = 4.94 s  ClockTime = 7 s

forces forces write:
    sum of forces:
        pressure : (0 0 0)
        viscous  : (0 0 0)
        porous   : (0 0 0)
    sum of moments:
        pressure : (0 0 0)
        viscous  : (0 0 0)
        porous   : (0 0 0)

forceCoeffs forceCoeffs write:
    Cm    = 0
    Cd    = 0
    Cl    = 0
    Cl(f) = 0
    Cl(r) = 0

Time = 0.0055

Courant Number mean: 0.00493561 max: 0.0432638
smoothSolver:  Solving for Ux, Initial residual = 0.00285852, Final residual = 7.6183e-08, No Iterations 4
smoothSolver:  Solving for Uy, Initial residual = 0.00690182, Final residual = 2.45617e-08, No Iterations 5
DICPCG:  Solving for p, Initial residual = 0.540676, Final residual = 8.81352e-08, No Iterations 168
time step continuity errors : sum local = 7.32359e-14, global = 9.11761e-17, cumulative = -5.18636e-15
DICPCG:  Solving for p, Initial residual = 0.536017, Final residual = 7.94532e-08, No Iterations 168
time step continuity errors : sum local = 6.58937e-14, global = -2.30634e-16, cumulative = -5.417e-15
ExecutionTime = 5.2 s  ClockTime = 7 s

forces forces write:
    sum of forces:
        pressure : (0 0 0)
        viscous  : (0 0 0)
        porous   : (0 0 0)
    sum of moments:
        pressure : (0 0 0)
        viscous  : (0 0 0)
        porous   : (0 0 0)

forceCoeffs forceCoeffs write:
    Cm    = 0
    Cd    = 0
    Cl    = 0
    Cl(f) = 0
    Cl(r) = 0

Time = 0.006

Courant Number mean: 0.00493493 max: 0.0429154
smoothSolver:  Solving for Ux, Initial residual = 0.00252928, Final residual = 6.87125e-08, No Iterations 4
smoothSolver:  Solving for Uy, Initial residual = 0.00672935, Final residual = 2.5277e-08, No Iterations 5
DICPCG:  Solving for p, Initial residual = 0.565854, Final residual = 9.43511e-08, No Iterations 168
time step continuity errors : sum local = 7.81371e-14, global = 1.14306e-16, cumulative = -5.30269e-15
DICPCG:  Solving for p, Initial residual = 0.562271, Final residual = 8.29324e-08, No Iterations 168
time step continuity errors : sum local = 6.88367e-14, global = -2.6362e-16, cumulative = -5.56631e-15
ExecutionTime = 5.46 s  ClockTime = 7 s

forces forces write:
    sum of forces:
        pressure : (0 0 0)
        viscous  : (0 0 0)
        porous   : (0 0 0)
    sum of moments:
        pressure : (0 0 0)
        viscous  : (0 0 0)
        porous   : (0 0 0)

forceCoeffs forceCoeffs write:
    Cm    = 0
    Cd    = 0
    Cl    = 0
    Cl(f) = 0
    Cl(r) = 0

Time = 0.0065

Courant Number mean: 0.00493429 max: 0.0427161
smoothSolver:  Solving for Ux, Initial residual = 0.0022679, Final residual = 6.30369e-08, No Iterations 4
smoothSolver:  Solving for Uy, Initial residual = 0.00656498, Final residual = 2.60188e-08, No Iterations 5
DICPCG:  Solving for p, Initial residual = 0.590713, Final residual = 9.86586e-08, No Iterations 168
time step continuity errors : sum local = 8.21073e-14, global = 1.44952e-16, cumulative = -5.42136e-15
DICPCG:  Solving for p, Initial residual = 0.587257, Final residual = 8.75474e-08, No Iterations 168
time step continuity errors : sum local = 7.32474e-14, global = -2.656e-16, cumulative = -5.68696e-15
ExecutionTime = 5.73 s  ClockTime = 8 s

forces forces write:
    sum of forces:
        pressure : (0 0 0)
        viscous  : (0 0 0)
        porous   : (0 0 0)
    sum of moments:
        pressure : (0 0 0)
        viscous  : (0 0 0)
        porous   : (0 0 0)

forceCoeffs forceCoeffs write:
    Cm    = 0
    Cd    = 0
    Cl    = 0
    Cl(f) = 0
    Cl(r) = 0

Time = 0.007

Courant Number mean: 0.00493368 max: 0.0425271
smoothSolver:  Solving for Ux, Initial residual = 0.00205505, Final residual = 5.8697e-08, No Iterations 4
smoothSolver:  Solving for Uy, Initial residual = 0.00641554, Final residual = 2.68117e-08, No Iterations 5
DICPCG:  Solving for p, Initial residual = 0.614185, Final residual = 7.63515e-08, No Iterations 169
time step continuity errors : sum local = 6.42478e-14, global = 3.34252e-16, cumulative = -5.35271e-15
DICPCG:  Solving for p, Initial residual = 0.610155, Final residual = 9.01318e-08, No Iterations 168
time step continuity errors : sum local = 7.6495e-14, global = -2.91383e-16, cumulative = -5.64409e-15
ExecutionTime = 5.99 s  ClockTime = 8 s

forces forces write:
    sum of forces:
        pressure : (0 0 0)
        viscous  : (0 0 0)
        porous   : (0 0 0)
    sum of moments:
        pressure : (0 0 0)
        viscous  : (0 0 0)
        porous   : (0 0 0)

forceCoeffs forceCoeffs write:
    Cm    = 0
    Cd    = 0
    Cl    = 0
    Cl(f) = 0
    Cl(r) = 0

Time = 0.0075

Courant Number mean: 0.00493309 max: 0.0423211
smoothSolver:  Solving for Ux, Initial residual = 0.00187912, Final residual = 5.53192e-08, No Iterations 4
smoothSolver:  Solving for Uy, Initial residual = 0.00628307, Final residual = 2.76696e-08, No Iterations 5
DICPCG:  Solving for p, Initial residual = 0.636112, Final residual = 7.90713e-08, No Iterations 169
time step continuity errors : sum local = 6.75679e-14, global = 3.57453e-16, cumulative = -5.28664e-15
DICPCG:  Solving for p, Initial residual = 0.632124, Final residual = 9.11995e-08, No Iterations 168
time step continuity errors : sum local = 7.87622e-14, global = -3.15596e-16, cumulative = -5.60223e-15
ExecutionTime = 6.25 s  ClockTime = 8 s

forces forces write:
    sum of forces:
        pressure : (0 0 0)
        viscous  : (0 0 0)
        porous   : (0 0 0)
    sum of moments:
        pressure : (0 0 0)
        viscous  : (0 0 0)
        porous   : (0 0 0)

forceCoeffs forceCoeffs write:
    Cm    = 0
    Cd    = 0
    Cl    = 0
    Cl(f) = 0
    Cl(r) = 0

Time = 0.008

Courant Number mean: 0.00493254 max: 0.0421011
smoothSolver:  Solving for Ux, Initial residual = 0.00173232, Final residual = 5.26673e-08, No Iterations 4
smoothSolver:  Solving for Uy, Initial residual = 0.0061703, Final residual = 2.86011e-08, No Iterations 5
DICPCG:  Solving for p, Initial residual = 0.657787, Final residual = 8.15257e-08, No Iterations 169
time step continuity errors : sum local = 7.09161e-14, global = 3.83132e-16, cumulative = -5.2191e-15
DICPCG:  Solving for p, Initial residual = 0.653451, Final residual = 9.3452e-08, No Iterations 168
time step continuity errors : sum local = 8.23126e-14, global = -3.22862e-16, cumulative = -5.54196e-15
ExecutionTime = 6.52 s  ClockTime = 8 s

forces forces write:
    sum of forces:
        pressure : (0 0 0)
        viscous  : (0 0 0)
        porous   : (0 0 0)
    sum of moments:
        pressure : (0 0 0)
        viscous  : (0 0 0)
        porous   : (0 0 0)

forceCoeffs forceCoeffs write:
    Cm    = 0
    Cd    = 0
    Cl    = 0
    Cl(f) = 0
    Cl(r) = 0

Time = 0.0085

Courant Number mean: 0.004932 max: 0.0418697
smoothSolver:  Solving for Ux, Initial residual = 0.00160774, Final residual = 5.05735e-08, No Iterations 4
smoothSolver:  Solving for Uy, Initial residual = 0.00607687, Final residual = 2.9613e-08, No Iterations 5
DICPCG:  Solving for p, Initial residual = 0.678413, Final residual = 8.6778e-08, No Iterations 169
time step continuity errors : sum local = 7.70732e-14, global = 3.98138e-16, cumulative = -5.14383e-15
DICPCG:  Solving for p, Initial residual = 0.673676, Final residual = 7.53063e-08, No Iterations 169
time step continuity errors : sum local = 6.78578e-14, global = -3.88077e-16, cumulative = -5.5319e-15
ExecutionTime = 6.78 s  ClockTime = 9 s

forces forces write:
    sum of forces:
        pressure : (0 0 0)
        viscous  : (0 0 0)
        porous   : (0 0 0)
    sum of moments:
        pressure : (0 0 0)
        viscous  : (0 0 0)
        porous   : (0 0 0)

forceCoeffs forceCoeffs write:
    Cm    = 0
    Cd    = 0
    Cl    = 0
    Cl(f) = 0
    Cl(r) = 0

Time = 0.009

Courant Number mean: 0.00493148 max: 0.0416291
smoothSolver:  Solving for Ux, Initial residual = 0.00150059, Final residual = 4.89351e-08, No Iterations 4
smoothSolver:  Solving for Uy, Initial residual = 0.00600093, Final residual = 3.07192e-08, No Iterations 5
DICPCG:  Solving for p, Initial residual = 0.698359, Final residual = 8.65329e-08, No Iterations 169
time step continuity errors : sum local = 7.86591e-14, global = 4.17129e-16, cumulative = -5.11477e-15
DICPCG:  Solving for p, Initial residual = 0.693101, Final residual = 7.4802e-08, No Iterations 169
time step continuity errors : sum local = 6.91059e-14, global = -4.11527e-16, cumulative = -5.5263e-15
ExecutionTime = 7.04 s  ClockTime = 9 s

forces forces write:
    sum of forces:
        pressure : (0 0 0)
        viscous  : (0 0 0)
        porous   : (0 0 0)
    sum of moments:
        pressure : (0 0 0)
        viscous  : (0 0 0)
        porous   : (0 0 0)

forceCoeffs forceCoeffs write:
    Cm    = 0
    Cd    = 0
    Cl    = 0
    Cl(f) = 0
    Cl(r) = 0

Time = 0.0095

Courant Number mean: 0.00493098 max: 0.0413816
smoothSolver:  Solving for Ux, Initial residual = 0.00140797, Final residual = 4.77036e-08, No Iterations 4
smoothSolver:  Solving for Uy, Initial residual = 0.00594283, Final residual = 3.19211e-08, No Iterations 5
DICPCG:  Solving for p, Initial residual = 0.71751, Final residual = 8.74318e-08, No Iterations 169
time step continuity errors : sum local = 8.15601e-14, global = 4.58472e-16, cumulative = -5.06783e-15
DICPCG:  Solving for p, Initial residual = 0.711324, Final residual = 7.38079e-08, No Iterations 169
time step continuity errors : sum local = 7.0109e-14, global = -4.5509e-16, cumulative = -5.52292e-15
ExecutionTime = 7.3 s  ClockTime = 9 s

forces forces write:
    sum of forces:
        pressure : (0 0 0)
        viscous  : (0 0 0)
        porous   : (0 0 0)
    sum of moments:
        pressure : (0 0 0)
        viscous  : (0 0 0)
        porous   : (0 0 0)

forceCoeffs forceCoeffs write:
    Cm    = 0
    Cd    = 0
    Cl    = 0
    Cl(f) = 0
    Cl(r) = 0

Time = 0.01

Courant Number mean: 0.0049305 max: 0.0411925
smoothSolver:  Solving for Ux, Initial residual = 0.00132748, Final residual = 4.67995e-08, No Iterations 4
smoothSolver:  Solving for Uy, Initial residual = 0.00590251, Final residual = 3.32199e-08, No Iterations 5
DICPCG:  Solving for p, Initial residual = 0.73499, Final residual = 8.88483e-08, No Iterations 169
time step continuity errors : sum local = 8.53302e-14, global = 4.73655e-16, cumulative = -5.04926e-15
DICPCG:  Solving for p, Initial residual = 0.727798, Final residual = 7.78708e-08, No Iterations 169
time step continuity errors : sum local = 7.63095e-14, global = -4.62288e-16, cumulative = -5.51155e-15
ExecutionTime = 7.57 s  ClockTime = 9 s

forces forces write:
    sum of forces:
        pressure : (0 0 0)
        viscous  : (0 0 0)
        porous   : (0 0 0)
    sum of moments:
        pressure : (0 0 0)
        viscous  : (0 0 0)
        porous   : (0 0 0)

forceCoeffs forceCoeffs write:
    Cm    = 0
    Cd    = 0
    Cl    = 0
    Cl(f) = 0
    Cl(r) = 0

Time = 0.0105

Courant Number mean: 0.00493003 max: 0.0410512
smoothSolver:  Solving for Ux, Initial residual = 0.0012574, Final residual = 4.61506e-08, No Iterations 4
smoothSolver:  Solving for Uy, Initial residual = 0.00587841, Final residual = 3.46158e-08, No Iterations 5
DICPCG:  Solving for p, Initial residual = 0.751201, Final residual = 9.04296e-08, No Iterations 169
time step continuity errors : sum local = 8.9659e-14, global = 5.01974e-16, cumulative = -5.00958e-15
DICPCG:  Solving for p, Initial residual = 0.743129, Final residual = 7.66435e-08, No Iterations 169
time step continuity errors : sum local = 7.7656e-14, global = -5.05414e-16, cumulative = -5.51499e-15
ExecutionTime = 7.83 s  ClockTime = 10 s

forces forces write:
    sum of forces:
        pressure : (0 0 0)
        viscous  : (0 0 0)
        porous   : (0 0 0)
    sum of moments:
        pressure : (0 0 0)
        viscous  : (0 0 0)
        porous   : (0 0 0)

forceCoeffs forceCoeffs write:
    Cm    = 0
    Cd    = 0
    Cl    = 0
    Cl(f) = 0
    Cl(r) = 0

Time = 0.011

Courant Number mean: 0.00492958 max: 0.0409033
smoothSolver:  Solving for Ux, Initial residual = 0.00119581, Final residual = 4.574e-08, No Iterations 4
smoothSolver:  Solving for Uy, Initial residual = 0.00587072, Final residual = 3.61143e-08, No Iterations 5
DICPCG:  Solving for p, Initial residual = 0.766777, Final residual = 9.17128e-08, No Iterations 169
time step continuity errors : sum local = 9.4045e-14, global = 5.34946e-16, cumulative = -4.98004e-15
DICPCG:  Solving for p, Initial residual = 0.758217, Final residual = 7.8134e-08, No Iterations 169
time step continuity errors : sum local = 8.19444e-14, global = -5.19193e-16, cumulative = -5.49924e-15
ExecutionTime = 8.11 s  ClockTime = 10 s

forces forces write:
    sum of forces:
        pressure : (0 0 0)
        viscous  : (0 0 0)
        porous   : (0 0 0)
    sum of moments:
        pressure : (0 0 0)
        viscous  : (0 0 0)
        porous   : (0 0 0)

forceCoeffs forceCoeffs write:
    Cm    = 0
    Cd    = 0
    Cl    = 0
    Cl(f) = 0
    Cl(r) = 0

Time = 0.0115

Courant Number mean: 0.00492913 max: 0.0407496
smoothSolver:  Solving for Ux, Initial residual = 0.0011411, Final residual = 4.55362e-08, No Iterations 4
smoothSolver:  Solving for Uy, Initial residual = 0.00587965, Final residual = 3.77245e-08, No Iterations 5
DICPCG:  Solving for p, Initial residual = 0.781191, Final residual = 9.21655e-08, No Iterations 169
time step continuity errors : sum local = 9.79045e-14, global = 5.51672e-16, cumulative = -4.94756e-15
DICPCG:  Solving for p, Initial residual = 0.772187, Final residual = 8.11648e-08, No Iterations 169
time step continuity errors : sum local = 8.82887e-14, global = -5.50057e-16, cumulative = -5.49762e-15
ExecutionTime = 8.39 s  ClockTime = 10 s

forces forces write:
    sum of forces:
        pressure : (0 0 0)
        viscous  : (0 0 0)
        porous   : (0 0 0)
    sum of moments:
        pressure : (0 0 0)
        viscous  : (0 0 0)
        porous   : (0 0 0)

forceCoeffs forceCoeffs write:
    Cm    = 0
    Cd    = 0
    Cl    = 0
    Cl(f) = 0
    Cl(r) = 0

Time = 0.012

Courant Number mean: 0.0049287 max: 0.0405909
smoothSolver:  Solving for Ux, Initial residual = 0.00109262, Final residual = 4.55323e-08, No Iterations 4
smoothSolver:  Solving for Uy, Initial residual = 0.00590297, Final residual = 3.94493e-08, No Iterations 5
DICPCG:  Solving for p, Initial residual = 0.795063, Final residual = 9.42161e-08, No Iterations 169
time step continuity errors : sum local = 1.03855e-13, global = 5.85461e-16, cumulative = -4.91216e-15
DICPCG:  Solving for p, Initial residual = 0.785398, Final residual = 8.25002e-08, No Iterations 169
time step continuity errors : sum local = 9.32151e-14, global = -5.77696e-16, cumulative = -5.48986e-15
ExecutionTime = 8.65 s  ClockTime = 11 s

forces forces write:
    sum of forces:
        pressure : (0 0 0)
        viscous  : (0 0 0)
        porous   : (0 0 0)
    sum of moments:
        pressure : (0 0 0)
        viscous  : (0 0 0)
        porous   : (0 0 0)

forceCoeffs forceCoeffs write:
    Cm    = 0
    Cd    = 0
    Cl    = 0
    Cl(f) = 0
    Cl(r) = 0

Time = 0.0125

Courant Number mean: 0.00492828 max: 0.0404281
smoothSolver:  Solving for Ux, Initial residual = 0.00104962, Final residual = 4.57062e-08, No Iterations 4
smoothSolver:  Solving for Uy, Initial residual = 0.00594176, Final residual = 4.1291e-08, No Iterations 5
DICPCG:  Solving for p, Initial residual = 0.80886, Final residual = 9.56855e-08, No Iterations 169
time step continuity errors : sum local = 1.09568e-13, global = 6.09616e-16, cumulative = -4.88024e-15
DICPCG:  Solving for p, Initial residual = 0.798473, Final residual = 8.34632e-08, No Iterations 169
time step continuity errors : sum local = 9.80186e-14, global = -6.1414e-16, cumulative = -5.49438e-15
ExecutionTime = 8.92 s  ClockTime = 11 s

forces forces write:
    sum of forces:
        pressure : (0 0 0)
        viscous  : (0 0 0)
        porous   : (0 0 0)
    sum of moments:
        pressure : (0 0 0)
        viscous  : (0 0 0)
        porous   : (0 0 0)

forceCoeffs forceCoeffs write:
    Cm    = 0
    Cd    = 0
    Cl    = 0
    Cl(f) = 0
    Cl(r) = 0

Time = 0.013

Courant Number mean: 0.00492787 max: 0.0402618
smoothSolver:  Solving for Ux, Initial residual = 0.00101144, Final residual = 4.60417e-08, No Iterations 4
smoothSolver:  Solving for Uy, Initial residual = 0.00599568, Final residual = 4.3252e-08, No Iterations 5
DICPCG:  Solving for p, Initial residual = 0.821332, Final residual = 9.62332e-08, No Iterations 169
time step continuity errors : sum local = 1.14624e-13, global = 6.4562e-16, cumulative = -4.84876e-15
DICPCG:  Solving for p, Initial residual = 0.810333, Final residual = 8.55253e-08, No Iterations 169
time step continuity errors : sum local = 1.04595e-13, global = -6.42802e-16, cumulative = -5.49156e-15
ExecutionTime = 9.19 s  ClockTime = 11 s

forces forces write:
    sum of forces:
        pressure : (0 0 0)
        viscous  : (0 0 0)
        porous   : (0 0 0)
    sum of moments:
        pressure : (0 0 0)
        viscous  : (0 0 0)
        porous   : (0 0 0)

forceCoeffs forceCoeffs write:
    Cm    = 0
    Cd    = 0
    Cl    = 0
    Cl(f) = 0
    Cl(r) = 0

Time = 0.0135

Courant Number mean: 0.00492747 max: 0.0400928
smoothSolver:  Solving for Ux, Initial residual = 0.000977744, Final residual = 4.65198e-08, No Iterations 4
smoothSolver:  Solving for Uy, Initial residual = 0.00606324, Final residual = 4.53361e-08, No Iterations 5
DICPCG:  Solving for p, Initial residual = 0.833129, Final residual = 9.77967e-08, No Iterations 169
time step continuity errors : sum local = 1.21352e-13, global = 6.8625e-16, cumulative = -4.80531e-15
DICPCG:  Solving for p, Initial residual = 0.821538, Final residual = 8.4552e-08, No Iterations 169
time step continuity errors : sum local = 1.07806e-13, global = -6.91088e-16, cumulative = -5.4964e-15
ExecutionTime = 9.45 s  ClockTime = 11 s

forces forces write:
    sum of forces:
        pressure : (0 0 0)
        viscous  : (0 0 0)
        porous   : (0 0 0)
    sum of moments:
        pressure : (0 0 0)
        viscous  : (0 0 0)
        porous   : (0 0 0)

forceCoeffs forceCoeffs write:
    Cm    = 0
    Cd    = 0
    Cl    = 0
    Cl(f) = 0
    Cl(r) = 0

Time = 0.014

Courant Number mean: 0.00492708 max: 0.0399218
smoothSolver:  Solving for Ux, Initial residual = 0.000947718, Final residual = 4.71414e-08, No Iterations 4
smoothSolver:  Solving for Uy, Initial residual = 0.00614504, Final residual = 4.75482e-08, No Iterations 5
DICPCG:  Solving for p, Initial residual = 0.844224, Final residual = 9.69001e-08, No Iterations 169
time step continuity errors : sum local = 1.25412e-13, global = 7.39695e-16, cumulative = -4.75671e-15
DICPCG:  Solving for p, Initial residual = 0.832021, Final residual = 8.70214e-08, No Iterations 169
time step continuity errors : sum local = 1.15805e-13, global = -7.18059e-16, cumulative = -5.47477e-15
ExecutionTime = 9.72 s  ClockTime = 12 s

forces forces write:
    sum of forces:
        pressure : (0 0 0)
        viscous  : (0 0 0)
        porous   : (0 0 0)
    sum of moments:
        pressure : (0 0 0)
        viscous  : (0 0 0)
        porous   : (0 0 0)

forceCoeffs forceCoeffs write:
    Cm    = 0
    Cd    = 0
    Cl    = 0
    Cl(f) = 0
    Cl(r) = 0

Time = 0.0145

Courant Number mean: 0.0049267 max: 0.039749
smoothSolver:  Solving for Ux, Initial residual = 0.00092098, Final residual = 4.78981e-08, No Iterations 4
smoothSolver:  Solving for Uy, Initial residual = 0.00624079, Final residual = 4.98923e-08, No Iterations 5
DICPCG:  Solving for p, Initial residual = 0.854757, Final residual = 9.93478e-08, No Iterations 169
time step continuity errors : sum local = 1.34235e-13, global = 7.8062e-16, cumulative = -4.69415e-15
DICPCG:  Solving for p, Initial residual = 0.842011, Final residual = 8.86773e-08, No Iterations 169
time step continuity errors : sum local = 1.23261e-13, global = -7.59678e-16, cumulative = -5.45382e-15
ExecutionTime = 9.99 s  ClockTime = 12 s

forces forces write:
    sum of forces:
        pressure : (0 0 0)
        viscous  : (0 0 0)
        porous   : (0 0 0)
    sum of moments:
        pressure : (0 0 0)
        viscous  : (0 0 0)
        porous   : (0 0 0)

forceCoeffs forceCoeffs write:
    Cm    = 0
    Cd    = 0
    Cl    = 0
    Cl(f) = 0
    Cl(r) = 0

Time = 0.015

Courant Number mean: 0.00492632 max: 0.0395913
smoothSolver:  Solving for Ux, Initial residual = 0.000897221, Final residual = 4.87976e-08, No Iterations 4
smoothSolver:  Solving for Uy, Initial residual = 0.00635081, Final residual = 5.23743e-08, No Iterations 5
DICPCG:  Solving for p, Initial residual = 0.864685, Final residual = 9.90905e-08, No Iterations 169
time step continuity errors : sum local = 1.39909e-13, global = 8.24326e-16, cumulative = -4.6295e-15
DICPCG:  Solving for p, Initial residual = 0.851519, Final residual = 8.21554e-08, No Iterations 169
time step continuity errors : sum local = 1.19391e-13, global = -8.1109e-16, cumulative = -5.44059e-15
ExecutionTime = 10.25 s  ClockTime = 12 s

forces forces write:
    sum of forces:
        pressure : (0 0 0)
        viscous  : (0 0 0)
        porous   : (0 0 0)
    sum of moments:
        pressure : (0 0 0)
        viscous  : (0 0 0)
        porous   : (0 0 0)

forceCoeffs forceCoeffs write:
    Cm    = 0
    Cd    = 0
    Cl    = 0
    Cl(f) = 0
    Cl(r) = 0

Time = 0.0155

Courant Number mean: 0.00492596 max: 0.0394862
smoothSolver:  Solving for Ux, Initial residual = 0.000876212, Final residual = 4.9825e-08, No Iterations 4
smoothSolver:  Solving for Uy, Initial residual = 0.00647546, Final residual = 5.5002e-08, No Iterations 5
DICPCG:  Solving for p, Initial residual = 0.874342, Final residual = 9.97858e-08, No Iterations 169
time step continuity errors : sum local = 1.47301e-13, global = 8.74588e-16, cumulative = -4.566e-15
DICPCG:  Solving for p, Initial residual = 0.860668, Final residual = 9.1209e-08, No Iterations 169
time step continuity errors : sum local = 1.38646e-13, global = -8.27944e-16, cumulative = -5.39394e-15
ExecutionTime = 10.52 s  ClockTime = 12 s

forces forces write:
    sum of forces:
        pressure : (0 0 0)
        viscous  : (0 0 0)
        porous   : (0 0 0)
    sum of moments:
        pressure : (0 0 0)
        viscous  : (0 0 0)
        porous   : (0 0 0)

forceCoeffs forceCoeffs write:
    Cm    = 0
    Cd    = 0
    Cl    = 0
    Cl(f) = 0
    Cl(r) = 0

Time = 0.016

Courant Number mean: 0.0049256 max: 0.0393783
smoothSolver:  Solving for Ux, Initial residual = 0.000857891, Final residual = 5.0986e-08, No Iterations 4
smoothSolver:  Solving for Uy, Initial residual = 0.00661475, Final residual = 5.77832e-08, No Iterations 5
DICPCG:  Solving for p, Initial residual = 0.883246, Final residual = 9.97587e-08, No Iterations 169
time step continuity errors : sum local = 1.54104e-13, global = 9.07573e-16, cumulative = -4.48637e-15
DICPCG:  Solving for p, Initial residual = 0.869085, Final residual = 9.14002e-08, No Iterations 169
time step continuity errors : sum local = 1.45493e-13, global = -8.84393e-16, cumulative = -5.37076e-15
ExecutionTime = 10.79 s  ClockTime = 13 s

forces forces write:
    sum of forces:
        pressure : (0 0 0)
        viscous  : (0 0 0)
        porous   : (0 0 0)
    sum of moments:
        pressure : (0 0 0)
        viscous  : (0 0 0)
        porous   : (0 0 0)

forceCoeffs forceCoeffs write:
    Cm    = 0
    Cd    = 0
    Cl    = 0
    Cl(f) = 0
    Cl(r) = 0

Time = 0.0165

Courant Number mean: 0.00492524 max: 0.0392682
smoothSolver:  Solving for Ux, Initial residual = 0.000841978, Final residual = 5.22735e-08, No Iterations 4
smoothSolver:  Solving for Uy, Initial residual = 0.00676844, Final residual = 6.0724e-08, No Iterations 5
DICPCG:  Solving for p, Initial residual = 0.89181, Final residual = 7.97011e-08, No Iterations 170
time step continuity errors : sum local = 1.28937e-13, global = 9.73724e-16, cumulative = -4.39704e-15
DICPCG:  Solving for p, Initial residual = 0.87717, Final residual = 9.23873e-08, No Iterations 169
time step continuity errors : sum local = 1.54087e-13, global = -9.66663e-16, cumulative = -5.3637e-15
ExecutionTime = 11.05 s  ClockTime = 13 s

forces forces write:
    sum of forces:
        pressure : (0 0 0)
        viscous  : (0 0 0)
        porous   : (0 0 0)
    sum of moments:
        pressure : (0 0 0)
        viscous  : (0 0 0)
        porous   : (0 0 0)

forceCoeffs forceCoeffs write:
    Cm    = 0
    Cd    = 0
    Cl    = 0
    Cl(f) = 0
    Cl(r) = 0

Time = 0.017

Courant Number mean: 0.0049249 max: 0.0391561
smoothSolver:  Solving for Ux, Initial residual = 0.000828261, Final residual = 5.36898e-08, No Iterations 4
smoothSolver:  Solving for Uy, Initial residual = 0.00693773, Final residual = 6.38333e-08, No Iterations 5
DICPCG:  Solving for p, Initial residual = 0.899763, Final residual = 8.06994e-08, No Iterations 170
time step continuity errors : sum local = 1.36842e-13, global = 1.01952e-15, cumulative = -4.34418e-15
DICPCG:  Solving for p, Initial residual = 0.884646, Final residual = 8.93397e-08, No Iterations 169
time step continuity errors : sum local = 1.56258e-13, global = -1.02688e-15, cumulative = -5.37106e-15
ExecutionTime = 11.31 s  ClockTime = 13 s

forces forces write:
    sum of forces:
        pressure : (0 0 0)
        viscous  : (0 0 0)
        porous   : (0 0 0)
    sum of moments:
        pressure : (0 0 0)
        viscous  : (0 0 0)
        porous   : (0 0 0)

forceCoeffs forceCoeffs write:
    Cm    = 0
    Cd    = 0
    Cl    = 0
    Cl(f) = 0
    Cl(r) = 0

Time = 0.0175

Courant Number mean: 0.00492455 max: 0.0390423
smoothSolver:  Solving for Ux, Initial residual = 0.000816534, Final residual = 5.5226e-08, No Iterations 4
smoothSolver:  Solving for Uy, Initial residual = 0.00712244, Final residual = 6.71188e-08, No Iterations 5
DICPCG:  Solving for p, Initial residual = 0.907062, Final residual = 8.02615e-08, No Iterations 170
time step continuity errors : sum local = 1.42777e-13, global = 1.07104e-15, cumulative = -4.30002e-15
DICPCG:  Solving for p, Initial residual = 0.891508, Final residual = 9.26267e-08, No Iterations 169
time step continuity errors : sum local = 1.70026e-13, global = -1.06027e-15, cumulative = -5.36029e-15
ExecutionTime = 11.58 s  ClockTime = 13 s

forces forces write:
    sum of forces:
        pressure : (0 0 0)
        viscous  : (0 0 0)
        porous   : (0 0 0)
    sum of moments:
        pressure : (0 0 0)
        viscous  : (0 0 0)
        porous   : (0 0 0)

forceCoeffs forceCoeffs write:
    Cm    = 0
    Cd    = 0
    Cl    = 0
    Cl(f) = 0
    Cl(r) = 0

Time = 0.018

Courant Number mean: 0.00492422 max: 0.0389271
smoothSolver:  Solving for Ux, Initial residual = 0.000806643, Final residual = 5.68844e-08, No Iterations 4
smoothSolver:  Solving for Uy, Initial residual = 0.00732289, Final residual = 7.05924e-08, No Iterations 5
DICPCG:  Solving for p, Initial residual = 0.91381, Final residual = 8.02368e-08, No Iterations 170
time step continuity errors : sum local = 1.49842e-13, global = 1.12756e-15, cumulative = -4.23273e-15
DICPCG:  Solving for p, Initial residual = 0.897835, Final residual = 8.45623e-08, No Iterations 169
time step continuity errors : sum local = 1.63024e-13, global = -1.1722e-15, cumulative = -5.40493e-15
ExecutionTime = 11.84 s  ClockTime = 14 s

forces forces write:
    sum of forces:
        pressure : (0 0 0)
        viscous  : (0 0 0)
        porous   : (0 0 0)
    sum of moments:
        pressure : (0 0 0)
        viscous  : (0 0 0)
        porous   : (0 0 0)

forceCoeffs forceCoeffs write:
    Cm    = 0
    Cd    = 0
    Cl    = 0
    Cl(f) = 0
    Cl(r) = 0

Time = 0.0185

Courant Number mean: 0.00492389 max: 0.0388107
smoothSolver:  Solving for Ux, Initial residual = 0.000798493, Final residual = 5.86796e-08, No Iterations 4
smoothSolver:  Solving for Uy, Initial residual = 0.00753957, Final residual = 7.42617e-08, No Iterations 5
DICPCG:  Solving for p, Initial residual = 0.920133, Final residual = 8.23658e-08, No Iterations 170
time step continuity errors : sum local = 1.61584e-13, global = 1.22918e-15, cumulative = -4.17574e-15
DICPCG:  Solving for p, Initial residual = 0.903756, Final residual = 9.54629e-08, No Iterations 169
time step continuity errors : sum local = 1.93394e-13, global = -1.19998e-15, cumulative = -5.37572e-15
ExecutionTime = 12.12 s  ClockTime = 14 s

forces forces write:
    sum of forces:
        pressure : (0 0 0)
        viscous  : (0 0 0)
        porous   : (0 0 0)
    sum of moments:
        pressure : (0 0 0)
        viscous  : (0 0 0)
        porous   : (0 0 0)

forceCoeffs forceCoeffs write:
    Cm    = 0
    Cd    = 0
    Cl    = 0
    Cl(f) = 0
    Cl(r) = 0

Time = 0.019

Courant Number mean: 0.00492356 max: 0.0386934
smoothSolver:  Solving for Ux, Initial residual = 0.000792088, Final residual = 6.06225e-08, No Iterations 4
smoothSolver:  Solving for Uy, Initial residual = 0.00777342, Final residual = 7.81365e-08, No Iterations 5
DICPCG:  Solving for p, Initial residual = 0.925965, Final residual = 8.07998e-08, No Iterations 170
time step continuity errors : sum local = 1.66612e-13, global = 1.25509e-15, cumulative = -4.12063e-15
DICPCG:  Solving for p, Initial residual = 0.909248, Final residual = 9.39907e-08, No Iterations 169
time step continuity errors : sum local = 2.00201e-13, global = -1.22488e-15, cumulative = -5.34551e-15
ExecutionTime = 12.38 s  ClockTime = 14 s

forces forces write:
    sum of forces:
        pressure : (0 0 0)
        viscous  : (0 0 0)
        porous   : (0 0 0)
    sum of moments:
        pressure : (0 0 0)
        viscous  : (0 0 0)
        porous   : (0 0 0)

forceCoeffs forceCoeffs write:
    Cm    = 0
    Cd    = 0
    Cl    = 0
    Cl(f) = 0
    Cl(r) = 0

Time = 0.0195

Courant Number mean: 0.00492324 max: 0.0385753
smoothSolver:  Solving for Ux, Initial residual = 0.000787361, Final residual = 6.27106e-08, No Iterations 4
smoothSolver:  Solving for Uy, Initial residual = 0.00802512, Final residual = 8.22278e-08, No Iterations 5
DICPCG:  Solving for p, Initial residual = 0.931285, Final residual = 8.1754e-08, No Iterations 170
time step continuity errors : sum local = 1.773e-13, global = 1.32775e-15, cumulative = -4.01776e-15
DICPCG:  Solving for p, Initial residual = 0.914232, Final residual = 9.43825e-08, No Iterations 169
time step continuity errors : sum local = 2.11505e-13, global = -1.32117e-15, cumulative = -5.33893e-15
ExecutionTime = 12.65 s  ClockTime = 15 s

forces forces write:
    sum of forces:
        pressure : (0 0 0)
        viscous  : (0 0 0)
        porous   : (0 0 0)
    sum of moments:
        pressure : (0 0 0)
        viscous  : (0 0 0)
        porous   : (0 0 0)

forceCoeffs forceCoeffs write:
    Cm    = 0
    Cd    = 0
    Cl    = 0
    Cl(f) = 0
    Cl(r) = 0

Time = 0.02

Courant Number mean: 0.00492293 max: 0.0384566
smoothSolver:  Solving for Ux, Initial residual = 0.000784282, Final residual = 6.49449e-08, No Iterations 4
smoothSolver:  Solving for Uy, Initial residual = 0.0082949, Final residual = 8.65474e-08, No Iterations 5
DICPCG:  Solving for p, Initial residual = 0.936203, Final residual = 8.17367e-08, No Iterations 170
time step continuity errors : sum local = 1.86528e-13, global = 1.40763e-15, cumulative = -3.9313e-15
DICPCG:  Solving for p, Initial residual = 0.918919, Final residual = 9.52414e-08, No Iterations 169
time step continuity errors : sum local = 2.24624e-13, global = -1.39452e-15, cumulative = -5.32581e-15
ExecutionTime = 12.91 s  ClockTime = 15 s

forces forces write:
    sum of forces:
        pressure : (0 0 0)
        viscous  : (0 0 0)
        porous   : (0 0 0)
    sum of moments:
        pressure : (0 0 0)
        viscous  : (0 0 0)
        porous   : (0 0 0)

forceCoeffs forceCoeffs write:
    Cm    = 0
    Cd    = 0
    Cl    = 0
    Cl(f) = 0
    Cl(r) = 0

Time = 0.0205

Courant Number mean: 0.00492262 max: 0.0383377
smoothSolver:  Solving for Ux, Initial residual = 0.000782886, Final residual = 6.7336e-08, No Iterations 4
smoothSolver:  Solving for Uy, Initial residual = 0.00858383, Final residual = 9.11072e-08, No Iterations 5
DICPCG:  Solving for p, Initial residual = 0.940888, Final residual = 8.18883e-08, No Iterations 170
time step continuity errors : sum local = 1.96705e-13, global = 1.53017e-15, cumulative = -3.79564e-15
DICPCG:  Solving for p, Initial residual = 0.92334, Final residual = 9.55642e-08, No Iterations 169
time step continuity errors : sum local = 2.37294e-13, global = -1.47578e-15, cumulative = -5.27142e-15
ExecutionTime = 13.18 s  ClockTime = 15 s

forces forces write:
    sum of forces:
        pressure : (0 0 0)
        viscous  : (0 0 0)
        porous   : (0 0 0)
    sum of moments:
        pressure : (0 0 0)
        viscous  : (0 0 0)
        porous   : (0 0 0)

forceCoeffs forceCoeffs write:
    Cm    = 0
    Cd    = 0
    Cl    = 0
    Cl(f) = 0
    Cl(r) = 0

Time = 0.021

Courant Number mean: 0.00492231 max: 0.0382185
smoothSolver:  Solving for Ux, Initial residual = 0.000783054, Final residual = 6.98827e-08, No Iterations 4
smoothSolver:  Solving for Uy, Initial residual = 0.00889288, Final residual = 9.59201e-08, No Iterations 5
DICPCG:  Solving for p, Initial residual = 0.945312, Final residual = 8.2001e-08, No Iterations 170
time step continuity errors : sum local = 2.07425e-13, global = 1.60501e-15, cumulative = -3.6664e-15
DICPCG:  Solving for p, Initial residual = 0.927488, Final residual = 9.6237e-08, No Iterations 169
time step continuity errors : sum local = 2.51671e-13, global = -1.54642e-15, cumulative = -5.21282e-15
ExecutionTime = 13.44 s  ClockTime = 15 s

forces forces write:
    sum of forces:
        pressure : (0 0 0)
        viscous  : (0 0 0)
        porous   : (0 0 0)
    sum of moments:
        pressure : (0 0 0)
        viscous  : (0 0 0)
        porous   : (0 0 0)

forceCoeffs forceCoeffs write:
    Cm    = 0
    Cd    = 0
    Cl    = 0
    Cl(f) = 0
    Cl(r) = 0

Time = 0.0215

Courant Number mean: 0.00492201 max: 0.038099
smoothSolver:  Solving for Ux, Initial residual = 0.000784769, Final residual = 7.25971e-08, No Iterations 4
smoothSolver:  Solving for Uy, Initial residual = 0.00922303, Final residual = 1.14559e-08, No Iterations 6
DICPCG:  Solving for p, Initial residual = 0.949389, Final residual = 8.22312e-08, No Iterations 170
time step continuity errors : sum local = 2.19115e-13, global = 1.62932e-15, cumulative = -3.5835e-15
DICPCG:  Solving for p, Initial residual = 0.931336, Final residual = 9.51787e-08, No Iterations 169
time step continuity errors : sum local = 2.6223e-13, global = -1.62191e-15, cumulative = -5.20541e-15
ExecutionTime = 13.71 s  ClockTime = 16 s

forces forces write:
    sum of forces:
        pressure : (0 0 0)
        viscous  : (0 0 0)
        porous   : (0 0 0)
    sum of moments:
        pressure : (0 0 0)
        viscous  : (0 0 0)
        porous   : (0 0 0)

forceCoeffs forceCoeffs write:
    Cm    = 0
    Cd    = 0
    Cl    = 0
    Cl(f) = 0
    Cl(r) = 0

Time = 0.022

Courant Number mean: 0.00492172 max: 0.0379795
smoothSolver:  Solving for Ux, Initial residual = 0.000787897, Final residual = 7.54718e-08, No Iterations 4
smoothSolver:  Solving for Uy, Initial residual = 0.00957501, Final residual = 1.20639e-08, No Iterations 6
DICPCG:  Solving for p, Initial residual = 0.95323, Final residual = 8.35715e-08, No Iterations 170
time step continuity errors : sum local = 2.34663e-13, global = 1.79082e-15, cumulative = -3.41459e-15
DICPCG:  Solving for p, Initial residual = 0.934915, Final residual = 9.73222e-08, No Iterations 169
time step continuity errors : sum local = 2.82592e-13, global = -1.7367e-15, cumulative = -5.15128e-15
ExecutionTime = 13.98 s  ClockTime = 16 s

forces forces write:
    sum of forces:
        pressure : (0 0 0)
        viscous  : (0 0 0)
        porous   : (0 0 0)
    sum of moments:
        pressure : (0 0 0)
        viscous  : (0 0 0)
        porous   : (0 0 0)

forceCoeffs forceCoeffs write:
    Cm    = 0
    Cd    = 0
    Cl    = 0
    Cl(f) = 0
    Cl(r) = 0

Time = 0.0225

Courant Number mean: 0.00492142 max: 0.0379005
smoothSolver:  Solving for Ux, Initial residual = 0.000792384, Final residual = 7.84914e-08, No Iterations 4
smoothSolver:  Solving for Uy, Initial residual = 0.00995032, Final residual = 1.27047e-08, No Iterations 6
DICPCG:  Solving for p, Initial residual = 0.95675, Final residual = 8.26291e-08, No Iterations 170
time step continuity errors : sum local = 2.44537e-13, global = 1.86146e-15, cumulative = -3.28983e-15
DICPCG:  Solving for p, Initial residual = 0.938351, Final residual = 9.50271e-08, No Iterations 169
time step continuity errors : sum local = 2.90827e-13, global = -1.81875e-15, cumulative = -5.10858e-15
ExecutionTime = 14.24 s  ClockTime = 16 s

forces forces write:
    sum of forces:
        pressure : (0 0 0)
        viscous  : (0 0 0)
        porous   : (0 0 0)
    sum of moments:
        pressure : (0 0 0)
        viscous  : (0 0 0)
        porous   : (0 0 0)

forceCoeffs forceCoeffs write:
    Cm    = 0
    Cd    = 0
    Cl    = 0
    Cl(f) = 0
    Cl(r) = 0

Time = 0.023

Courant Number mean: 0.00492114 max: 0.0378229
smoothSolver:  Solving for Ux, Initial residual = 0.000798206, Final residual = 8.16797e-08, No Iterations 4
smoothSolver:  Solving for Uy, Initial residual = 0.010349, Final residual = 1.33803e-08, No Iterations 6
DICPCG:  Solving for p, Initial residual = 0.960175, Final residual = 8.23872e-08, No Iterations 170
time step continuity errors : sum local = 2.57059e-13, global = 1.93622e-15, cumulative = -3.17235e-15
DICPCG:  Solving for p, Initial residual = 0.941548, Final residual = 9.74073e-08, No Iterations 169
time step continuity errors : sum local = 3.14301e-13, global = -1.94047e-15, cumulative = -5.11282e-15
ExecutionTime = 14.51 s  ClockTime = 16 s

forces forces write:
    sum of forces:
        pressure : (0 0 0)
        viscous  : (0 0 0)
        porous   : (0 0 0)
    sum of moments:
        pressure : (0 0 0)
        viscous  : (0 0 0)
        porous   : (0 0 0)

forceCoeffs forceCoeffs write:
    Cm    = 0
    Cd    = 0
    Cl    = 0
    Cl(f) = 0
    Cl(r) = 0

Time = 0.0235

Courant Number mean: 0.00492085 max: 0.0377442
smoothSolver:  Solving for Ux, Initial residual = 0.000805581, Final residual = 8.50831e-08, No Iterations 4
smoothSolver:  Solving for Uy, Initial residual = 0.0107716, Final residual = 1.40924e-08, No Iterations 6
DICPCG:  Solving for p, Initial residual = 0.96327, Final residual = 8.29203e-08, No Iterations 170
time step continuity errors : sum local = 2.72823e-13, global = 2.08929e-15, cumulative = -3.02353e-15
DICPCG:  Solving for p, Initial residual = 0.944411, Final residual = 9.73208e-08, No Iterations 169
time step continuity errors : sum local = 3.31199e-13, global = -2.05709e-15, cumulative = -5.08062e-15
ExecutionTime = 14.78 s  ClockTime = 17 s

forces forces write:
    sum of forces:
        pressure : (0 0 0)
        viscous  : (0 0 0)
        porous   : (0 0 0)
    sum of moments:
        pressure : (0 0 0)
        viscous  : (0 0 0)
        porous   : (0 0 0)

forceCoeffs forceCoeffs write:
    Cm    = 0
    Cd    = 0
    Cl    = 0
    Cl(f) = 0
    Cl(r) = 0

Time = 0.024

Courant Number mean: 0.00492057 max: 0.0376651
smoothSolver:  Solving for Ux, Initial residual = 0.000814528, Final residual = 8.86988e-08, No Iterations 4
smoothSolver:  Solving for Uy, Initial residual = 0.01122, Final residual = 1.48433e-08, No Iterations 6
DICPCG:  Solving for p, Initial residual = 0.966106, Final residual = 8.13747e-08, No Iterations 170
time step continuity errors : sum local = 2.82416e-13, global = 2.23461e-15, cumulative = -2.846e-15
DICPCG:  Solving for p, Initial residual = 0.947131, Final residual = 9.47859e-08, No Iterations 169
time step continuity errors : sum local = 3.40277e-13, global = -2.19609e-15, cumulative = -5.0421e-15
ExecutionTime = 15.04 s  ClockTime = 17 s

forces forces write:
    sum of forces:
        pressure : (0 0 0)
        viscous  : (0 0 0)
        porous   : (0 0 0)
    sum of moments:
        pressure : (0 0 0)
        viscous  : (0 0 0)
        porous   : (0 0 0)

forceCoeffs forceCoeffs write:
    Cm    = 0
    Cd    = 0
    Cl    = 0
    Cl(f) = 0
    Cl(r) = 0

Time = 0.0245

Courant Number mean: 0.00492029 max: 0.0375856
smoothSolver:  Solving for Ux, Initial residual = 0.000824978, Final residual = 9.25154e-08, No Iterations 4
smoothSolver:  Solving for Uy, Initial residual = 0.0116958, Final residual = 1.56347e-08, No Iterations 6
DICPCG:  Solving for p, Initial residual = 0.968785, Final residual = 8.30291e-08, No Iterations 170
time step continuity errors : sum local = 3.04059e-13, global = 2.3156e-15, cumulative = -2.7265e-15
DICPCG:  Solving for p, Initial residual = 0.949618, Final residual = 9.79378e-08, No Iterations 169
time step continuity errors : sum local = 3.71009e-13, global = -2.26865e-15, cumulative = -4.99515e-15
ExecutionTime = 15.32 s  ClockTime = 17 s

forces forces write:
    sum of forces:
        pressure : (0 0 0)
        viscous  : (0 0 0)
        porous   : (0 0 0)
    sum of moments:
        pressure : (0 0 0)
        viscous  : (0 0 0)
        porous   : (0 0 0)

forceCoeffs forceCoeffs write:
    Cm    = 0
    Cd    = 0
    Cl    = 0
    Cl(f) = 0
    Cl(r) = 0

Time = 0.025

Courant Number mean: 0.00492002 max: 0.0375059
smoothSolver:  Solving for Ux, Initial residual = 0.000837031, Final residual = 9.65653e-08, No Iterations 4
smoothSolver:  Solving for Uy, Initial residual = 0.0121999, Final residual = 1.64694e-08, No Iterations 6
DICPCG:  Solving for p, Initial residual = 0.971214, Final residual = 8.16485e-08, No Iterations 170
time step continuity errors : sum local = 3.15541e-13, global = 2.44365e-15, cumulative = -2.5515e-15
DICPCG:  Solving for p, Initial residual = 0.951864, Final residual = 9.78877e-08, No Iterations 169
time step continuity errors : sum local = 3.91379e-13, global = -2.39178e-15, cumulative = -4.94328e-15
ExecutionTime = 15.58 s  ClockTime = 17 s

forces forces write:
    sum of forces:
        pressure : (0 0 0)
        viscous  : (0 0 0)
        porous   : (0 0 0)
    sum of moments:
        pressure : (0 0 0)
        viscous  : (0 0 0)
        porous   : (0 0 0)

forceCoeffs forceCoeffs write:
    Cm    = 0
    Cd    = 0
    Cl    = 0
    Cl(f) = 0
    Cl(r) = 0

Time = 0.0255

Courant Number mean: 0.00491975 max: 0.0374258
smoothSolver:  Solving for Ux, Initial residual = 0.000850629, Final residual = 1.26131e-08, No Iterations 5
smoothSolver:  Solving for Uy, Initial residual = 0.012734, Final residual = 1.73493e-08, No Iterations 6
DICPCG:  Solving for p, Initial residual = 0.973416, Final residual = 8.32343e-08, No Iterations 170
time step continuity errors : sum local = 3.39451e-13, global = 2.59284e-15, cumulative = -2.35044e-15
DICPCG:  Solving for p, Initial residual = 0.953923, Final residual = 9.93682e-08, No Iterations 169
time step continuity errors : sum local = 4.19357e-13, global = -2.53881e-15, cumulative = -4.88925e-15
ExecutionTime = 15.85 s  ClockTime = 18 s

forces forces write:
    sum of forces:
        pressure : (0 0 0)
        viscous  : (0 0 0)
        porous   : (0 0 0)
    sum of moments:
        pressure : (0 0 0)
        viscous  : (0 0 0)
        porous   : (0 0 0)

forceCoeffs forceCoeffs write:
    Cm    = 0
    Cd    = 0
    Cl    = 0
    Cl(f) = 0
    Cl(r) = 0

Time = 0.026

Courant Number mean: 0.00491948 max: 0.0373456
smoothSolver:  Solving for Ux, Initial residual = 0.000865764, Final residual = 1.31917e-08, No Iterations 5
smoothSolver:  Solving for Uy, Initial residual = 0.0132994, Final residual = 1.82762e-08, No Iterations 6
DICPCG:  Solving for p, Initial residual = 0.975481, Final residual = 8.19897e-08, No Iterations 170
time step continuity errors : sum local = 3.53014e-13, global = 2.73777e-15, cumulative = -2.15148e-15
DICPCG:  Solving for p, Initial residual = 0.95597, Final residual = 9.84271e-08, No Iterations 169
time step continuity errors : sum local = 4.38514e-13, global = -2.71972e-15, cumulative = -4.8712e-15
ExecutionTime = 16.12 s  ClockTime = 18 s

forces forces write:
    sum of forces:
        pressure : (0 0 0)
        viscous  : (0 0 0)
        porous   : (0 0 0)
    sum of moments:
        pressure : (0 0 0)
        viscous  : (0 0 0)
        porous   : (0 0 0)

forceCoeffs forceCoeffs write:
    Cm    = 0
    Cd    = 0
    Cl    = 0
    Cl(f) = 0
    Cl(r) = 0

Time = 0.0265

Courant Number mean: 0.00491922 max: 0.0372651
smoothSolver:  Solving for Ux, Initial residual = 0.000882654, Final residual = 1.38063e-08, No Iterations 5
smoothSolver:  Solving for Uy, Initial residual = 0.013897, Final residual = 1.92535e-08, No Iterations 6
DICPCG:  Solving for p, Initial residual = 0.97743, Final residual = 8.26717e-08, No Iterations 170
time step continuity errors : sum local = 3.75739e-13, global = 2.89502e-15, cumulative = -1.97618e-15
DICPCG:  Solving for p, Initial residual = 0.957796, Final residual = 9.93147e-08, No Iterations 169
time step continuity errors : sum local = 4.67191e-13, global = -2.85103e-15, cumulative = -4.82721e-15
ExecutionTime = 16.38 s  ClockTime = 18 s

forces forces write:
    sum of forces:
        pressure : (0 0 0)
        viscous  : (0 0 0)
        porous   : (0 0 0)
    sum of moments:
        pressure : (0 0 0)
        viscous  : (0 0 0)
        porous   : (0 0 0)

forceCoeffs forceCoeffs write:
    Cm    = 0
    Cd    = 0
    Cl    = 0
    Cl(f) = 0
    Cl(r) = 0

Time = 0.027

Courant Number mean: 0.00491896 max: 0.0371845
smoothSolver:  Solving for Ux, Initial residual = 0.000901458, Final residual = 1.4458e-08, No Iterations 5
smoothSolver:  Solving for Uy, Initial residual = 0.0145293, Final residual = 2.02833e-08, No Iterations 6
DICPCG:  Solving for p, Initial residual = 0.979216, Final residual = 8.12425e-08, No Iterations 170
time step continuity errors : sum local = 3.89768e-13, global = 3.07999e-15, cumulative = -1.74722e-15
DICPCG:  Solving for p, Initial residual = 0.959605, Final residual = 9.74097e-08, No Iterations 169
time step continuity errors : sum local = 4.83834e-13, global = -3.03985e-15, cumulative = -4.78707e-15
ExecutionTime = 16.66 s  ClockTime = 19 s

forces forces write:
    sum of forces:
        pressure : (0 0 0)
        viscous  : (0 0 0)
        porous   : (0 0 0)
    sum of moments:
        pressure : (0 0 0)
        viscous  : (0 0 0)
        porous   : (0 0 0)

forceCoeffs forceCoeffs write:
    Cm    = 0
    Cd    = 0
    Cl    = 0
    Cl(f) = 0
    Cl(r) = 0

Time = 0.0275

Courant Number mean: 0.0049187 max: 0.0371037
smoothSolver:  Solving for Ux, Initial residual = 0.000921962, Final residual = 1.51448e-08, No Iterations 5
smoothSolver:  Solving for Uy, Initial residual = 0.0151981, Final residual = 2.13678e-08, No Iterations 6
DICPCG:  Solving for p, Initial residual = 0.980968, Final residual = 8.28104e-08, No Iterations 170
time step continuity errors : sum local = 4.19478e-13, global = 3.24726e-15, cumulative = -1.53981e-15
DICPCG:  Solving for p, Initial residual = 0.96148, Final residual = 9.86918e-08, No Iterations 169
time step continuity errors : sum local = 5.17588e-13, global = -3.12759e-15, cumulative = -4.6674e-15
ExecutionTime = 16.92 s  ClockTime = 19 s

forces forces write:
    sum of forces:
        pressure : (0 0 0)
        viscous  : (0 0 0)
        porous   : (0 0 0)
    sum of moments:
        pressure : (0 0 0)
        viscous  : (0 0 0)
        porous   : (0 0 0)

forceCoeffs forceCoeffs write:
    Cm    = 0
    Cd    = 0
    Cl    = 0
    Cl(f) = 0
    Cl(r) = 0

Time = 0.028

Courant Number mean: 0.00491845 max: 0.0370229
smoothSolver:  Solving for Ux, Initial residual = 0.000944432, Final residual = 1.58757e-08, No Iterations 5
smoothSolver:  Solving for Uy, Initial residual = 0.0159041, Final residual = 2.251e-08, No Iterations 6
DICPCG:  Solving for p, Initial residual = 0.982859, Final residual = 8.12224e-08, No Iterations 170
time step continuity errors : sum local = 4.34366e-13, global = 3.47117e-15, cumulative = -1.19623e-15
DICPCG:  Solving for p, Initial residual = 0.96343, Final residual = 9.89708e-08, No Iterations 169
time step continuity errors : sum local = 5.47948e-13, global = -3.37014e-15, cumulative = -4.56636e-15
ExecutionTime = 17.19 s  ClockTime = 19 s

forces forces write:
    sum of forces:
        pressure : (0 0 0)
        viscous  : (0 0 0)
        porous   : (0 0 0)
    sum of moments:
        pressure : (0 0 0)
        viscous  : (0 0 0)
        porous   : (0 0 0)

forceCoeffs forceCoeffs write:
    Cm    = 0
    Cd    = 0
    Cl    = 0
    Cl(f) = 0
    Cl(r) = 0

Time = 0.0285

Courant Number mean: 0.0049182 max: 0.0369425
smoothSolver:  Solving for Ux, Initial residual = 0.000968642, Final residual = 1.66442e-08, No Iterations 5
smoothSolver:  Solving for Uy, Initial residual = 0.0166507, Final residual = 2.37134e-08, No Iterations 6
DICPCG:  Solving for p, Initial residual = 0.984772, Final residual = 8.26418e-08, No Iterations 170
time step continuity errors : sum local = 4.6669e-13, global = 3.62886e-15, cumulative = -9.37504e-16
DICPCG:  Solving for p, Initial residual = 0.965194, Final residual = 9.74667e-08, No Iterations 169
time step continuity errors : sum local = 5.6981e-13, global = -3.55771e-15, cumulative = -4.49522e-15
ExecutionTime = 17.45 s  ClockTime = 19 s

forces forces write:
    sum of forces:
        pressure : (0 0 0)
        viscous  : (0 0 0)
        porous   : (0 0 0)
    sum of moments:
        pressure : (0 0 0)
        viscous  : (0 0 0)
        porous   : (0 0 0)

forceCoeffs forceCoeffs write:
    Cm    = 0
    Cd    = 0
    Cl    = 0
    Cl(f) = 0
    Cl(r) = 0

Time = 0.029

Courant Number mean: 0.00491795 max: 0.0368625
smoothSolver:  Solving for Ux, Initial residual = 0.000994808, Final residual = 1.74567e-08, No Iterations 5
smoothSolver:  Solving for Uy, Initial residual = 0.0174383, Final residual = 2.4981e-08, No Iterations 6
DICPCG:  Solving for p, Initial residual = 0.986484, Final residual = 8.38171e-08, No Iterations 170
time step continuity errors : sum local = 4.99864e-13, global = 3.85928e-15, cumulative = -6.35932e-16
DICPCG:  Solving for p, Initial residual = 0.966771, Final residual = 9.94466e-08, No Iterations 169
time step continuity errors : sum local = 6.14038e-13, global = -3.71644e-15, cumulative = -4.35237e-15
ExecutionTime = 17.72 s  ClockTime = 20 s

forces forces write:
    sum of forces:
        pressure : (0 0 0)
        viscous  : (0 0 0)
        porous   : (0 0 0)
    sum of moments:
        pressure : (0 0 0)
        viscous  : (0 0 0)
        porous   : (0 0 0)

forceCoeffs forceCoeffs write:
    Cm    = 0
    Cd    = 0
    Cl    = 0
    Cl(f) = 0
    Cl(r) = 0

Time = 0.0295

Courant Number mean: 0.00491771 max: 0.036783
smoothSolver:  Solving for Ux, Initial residual = 0.00102319, Final residual = 1.83169e-08, No Iterations 5
smoothSolver:  Solving for Uy, Initial residual = 0.0182696, Final residual = 2.63152e-08, No Iterations 6
DICPCG:  Solving for p, Initial residual = 0.988013, Final residual = 8.17731e-08, No Iterations 170
time step continuity errors : sum local = 5.15071e-13, global = 4.12918e-15, cumulative = -2.23188e-16
DICPCG:  Solving for p, Initial residual = 0.968191, Final residual = 9.98592e-08, No Iterations 169
time step continuity errors : sum local = 6.51333e-13, global = -3.97565e-15, cumulative = -4.19884e-15
ExecutionTime = 17.99 s  ClockTime = 20 s

forces forces write:
    sum of forces:
        pressure : (0 0 0)
        viscous  : (0 0 0)
        porous   : (0 0 0)
    sum of moments:
        pressure : (0 0 0)
        viscous  : (0 0 0)
        porous   : (0 0 0)

forceCoeffs forceCoeffs write:
    Cm    = 0
    Cd    = 0
    Cl    = 0
    Cl(f) = 0
    Cl(r) = 0

Time = 0.03

Courant Number mean: 0.00491747 max: 0.0367038
smoothSolver:  Solving for Ux, Initial residual = 0.00105384, Final residual = 1.92271e-08, No Iterations 5
smoothSolver:  Solving for Uy, Initial residual = 0.0191477, Final residual = 2.77197e-08, No Iterations 6
DICPCG:  Solving for p, Initial residual = 0.989406, Final residual = 8.23081e-08, No Iterations 170
time step continuity errors : sum local = 5.47763e-13, global = 4.30779e-15, cumulative = 1.08955e-16
DICPCG:  Solving for p, Initial residual = 0.969428, Final residual = 9.94284e-08, No Iterations 169
time step continuity errors : sum local = 6.85214e-13, global = -4.22391e-15, cumulative = -4.11495e-15
ExecutionTime = 18.26 s  ClockTime = 20 s

forces forces write:
    sum of forces:
        pressure : (0 0 0)
        viscous  : (0 0 0)
        porous   : (0 0 0)
    sum of moments:
        pressure : (0 0 0)
        viscous  : (0 0 0)
        porous   : (0 0 0)

forceCoeffs forceCoeffs write:
    Cm    = 0
    Cd    = 0
    Cl    = 0
    Cl(f) = 0
    Cl(r) = 0

Time = 0.0305

Courant Number mean: 0.00491723 max: 0.0366246
smoothSolver:  Solving for Ux, Initial residual = 0.00108688, Final residual = 2.0191e-08, No Iterations 5
smoothSolver:  Solving for Uy, Initial residual = 0.0200736, Final residual = 2.91983e-08, No Iterations 6
DICPCG:  Solving for p, Initial residual = 0.990584, Final residual = 8.3047e-08, No Iterations 170
time step continuity errors : sum local = 5.84005e-13, global = 4.54836e-15, cumulative = 4.33406e-16
DICPCG:  Solving for p, Initial residual = 0.970503, Final residual = 9.92052e-08, No Iterations 169
time step continuity errors : sum local = 7.22438e-13, global = -4.47548e-15, cumulative = -4.04208e-15
ExecutionTime = 18.53 s  ClockTime = 20 s

forces forces write:
    sum of forces:
        pressure : (0 0 0)
        viscous  : (0 0 0)
        porous   : (0 0 0)
    sum of moments:
        pressure : (0 0 0)
        viscous  : (0 0 0)
        porous   : (0 0 0)

forceCoeffs forceCoeffs write:
    Cm    = 0
    Cd    = 0
    Cl    = 0
    Cl(f) = 0
    Cl(r) = 0

Time = 0.031

Courant Number mean: 0.00491699 max: 0.0365459
smoothSolver:  Solving for Ux, Initial residual = 0.00112234, Final residual = 2.12094e-08, No Iterations 5
smoothSolver:  Solving for Uy, Initial residual = 0.0210501, Final residual = 3.07551e-08, No Iterations 6
DICPCG:  Solving for p, Initial residual = 0.990992, Final residual = 8.23892e-08, No Iterations 170
time step continuity errors : sum local = 6.12698e-13, global = 4.78514e-15, cumulative = 7.4306e-16
DICPCG:  Solving for p, Initial residual = 0.971421, Final residual = 9.97895e-08, No Iterations 169
time step continuity errors : sum local = 7.68046e-13, global = -4.72627e-15, cumulative = -3.98321e-15
ExecutionTime = 18.8 s  ClockTime = 21 s

forces forces write:
    sum of forces:
        pressure : (0 0 0)
        viscous  : (0 0 0)
        porous   : (0 0 0)
    sum of moments:
        pressure : (0 0 0)
        viscous  : (0 0 0)
        porous   : (0 0 0)

forceCoeffs forceCoeffs write:
    Cm    = 0
    Cd    = 0
    Cl    = 0
    Cl(f) = 0
    Cl(r) = 0

Time = 0.0315

Courant Number mean: 0.00491676 max: 0.036492
smoothSolver:  Solving for Ux, Initial residual = 0.00116035, Final residual = 2.22872e-08, No Iterations 5
smoothSolver:  Solving for Uy, Initial residual = 0.0220793, Final residual = 3.23941e-08, No Iterations 6
DICPCG:  Solving for p, Initial residual = 0.991248, Final residual = 9.49524e-08, No Iterations 169
time step continuity errors : sum local = 7.4672e-13, global = 4.76832e-15, cumulative = 7.85109e-16
DICPCG:  Solving for p, Initial residual = 0.972347, Final residual = 9.95637e-08, No Iterations 169
time step continuity errors : sum local = 8.09857e-13, global = -4.95741e-15, cumulative = -4.1723e-15
ExecutionTime = 19.07 s  ClockTime = 21 s

forces forces write:
    sum of forces:
        pressure : (0 0 0)
        viscous  : (0 0 0)
        porous   : (0 0 0)
    sum of moments:
        pressure : (0 0 0)
        viscous  : (0 0 0)
        porous   : (0 0 0)

forceCoeffs forceCoeffs write:
    Cm    = 0
    Cd    = 0
    Cl    = 0
    Cl(f) = 0
    Cl(r) = 0

Time = 0.032

Courant Number mean: 0.00491654 max: 0.036439
smoothSolver:  Solving for Ux, Initial residual = 0.00120095, Final residual = 2.34271e-08, No Iterations 5
smoothSolver:  Solving for Uy, Initial residual = 0.0231636, Final residual = 3.41181e-08, No Iterations 6
DICPCG:  Solving for p, Initial residual = 0.991552, Final residual = 8.36227e-08, No Iterations 170
time step continuity errors : sum local = 6.95403e-13, global = 5.27247e-15, cumulative = 1.10017e-15
DICPCG:  Solving for p, Initial residual = 0.973146, Final residual = 8.00777e-08, No Iterations 170
time step continuity errors : sum local = 6.88432e-13, global = -5.54362e-15, cumulative = -4.44345e-15
ExecutionTime = 19.33 s  ClockTime = 21 s

forces forces write:
    sum of forces:
        pressure : (0 0 0)
        viscous  : (0 0 0)
        porous   : (0 0 0)
    sum of moments:
        pressure : (0 0 0)
        viscous  : (0 0 0)
        porous   : (0 0 0)

forceCoeffs forceCoeffs write:
    Cm    = 0
    Cd    = 0
    Cl    = 0
    Cl(f) = 0
    Cl(r) = 0

Time = 0.0325

Courant Number mean: 0.00491631 max: 0.0363858
smoothSolver:  Solving for Ux, Initial residual = 0.00124431, Final residual = 2.46308e-08, No Iterations 5
smoothSolver:  Solving for Uy, Initial residual = 0.0243066, Final residual = 3.59311e-08, No Iterations 6
DICPCG:  Solving for p, Initial residual = 0.991744, Final residual = 8.08253e-08, No Iterations 170
time step continuity errors : sum local = 7.10929e-13, global = 5.82563e-15, cumulative = 1.38218e-15
DICPCG:  Solving for p, Initial residual = 0.973834, Final residual = 8.03682e-08, No Iterations 170
time step continuity errors : sum local = 7.30403e-13, global = -5.82701e-15, cumulative = -4.44483e-15
ExecutionTime = 19.61 s  ClockTime = 22 s

forces forces write:
    sum of forces:
        pressure : (0 0 0)
        viscous  : (0 0 0)
        porous   : (0 0 0)
    sum of moments:
        pressure : (0 0 0)
        viscous  : (0 0 0)
        porous   : (0 0 0)

forceCoeffs forceCoeffs write:
    Cm    = 0
    Cd    = 0
    Cl    = 0
    Cl(f) = 0
    Cl(r) = 0

Time = 0.033

Courant Number mean: 0.00491609 max: 0.0363323
smoothSolver:  Solving for Ux, Initial residual = 0.00129071, Final residual = 2.59051e-08, No Iterations 5
smoothSolver:  Solving for Uy, Initial residual = 0.0255101, Final residual = 3.78381e-08, No Iterations 6
DICPCG:  Solving for p, Initial residual = 0.991894, Final residual = 8.10457e-08, No Iterations 170
time step continuity errors : sum local = 7.54054e-13, global = 6.06339e-15, cumulative = 1.61855e-15
DICPCG:  Solving for p, Initial residual = 0.974463, Final residual = 8.00839e-08, No Iterations 170
time step continuity errors : sum local = 7.69475e-13, global = -6.14069e-15, cumulative = -4.52214e-15
ExecutionTime = 19.87 s  ClockTime = 22 s

forces forces write:
    sum of forces:
        pressure : (0 0 0)
        viscous  : (0 0 0)
        porous   : (0 0 0)
    sum of moments:
        pressure : (0 0 0)
        viscous  : (0 0 0)
        porous   : (0 0 0)

forceCoeffs forceCoeffs write:
    Cm    = 0
    Cd    = 0
    Cl    = 0
    Cl(f) = 0
    Cl(r) = 0

Time = 0.0335

Courant Number mean: 0.00491587 max: 0.0362787
smoothSolver:  Solving for Ux, Initial residual = 0.00134042, Final residual = 2.72534e-08, No Iterations 5
smoothSolver:  Solving for Uy, Initial residual = 0.0267778, Final residual = 3.98435e-08, No Iterations 6
DICPCG:  Solving for p, Initial residual = 0.99203, Final residual = 8.11731e-08, No Iterations 170
time step continuity errors : sum local = 7.98848e-13, global = 6.4448e-15, cumulative = 1.92266e-15
DICPCG:  Solving for p, Initial residual = 0.975064, Final residual = 8.03831e-08, No Iterations 170
time step continuity errors : sum local = 8.1657e-13, global = -6.53017e-15, cumulative = -4.60751e-15
ExecutionTime = 20.14 s  ClockTime = 22 s

forces forces write:
    sum of forces:
        pressure : (0 0 0)
        viscous  : (0 0 0)
        porous   : (0 0 0)
    sum of moments:
        pressure : (0 0 0)
        viscous  : (0 0 0)
        porous   : (0 0 0)

forceCoeffs forceCoeffs write:
    Cm    = 0
    Cd    = 0
    Cl    = 0
    Cl(f) = 0
    Cl(r) = 0

Time = 0.034

Courant Number mean: 0.00491566 max: 0.0362249
smoothSolver:  Solving for Ux, Initial residual = 0.00139345, Final residual = 2.86801e-08, No Iterations 5
smoothSolver:  Solving for Uy, Initial residual = 0.0281129, Final residual = 4.19521e-08, No Iterations 6
DICPCG:  Solving for p, Initial residual = 0.992156, Final residual = 8.07983e-08, No Iterations 170
time step continuity errors : sum local = 8.41051e-13, global = 6.83592e-15, cumulative = 2.22841e-15
DICPCG:  Solving for p, Initial residual = 0.975663, Final residual = 9.83843e-08, No Iterations 169
time step continuity errors : sum local = 1.05663e-12, global = -6.46937e-15, cumulative = -4.24095e-15
ExecutionTime = 20.41 s  ClockTime = 22 s

forces forces write:
    sum of forces:
        pressure : (0 0 0)
        viscous  : (0 0 0)
        porous   : (0 0 0)
    sum of moments:
        pressure : (0 0 0)
        viscous  : (0 0 0)
        porous   : (0 0 0)

forceCoeffs forceCoeffs write:
    Cm    = 0
    Cd    = 0
    Cl    = 0
    Cl(f) = 0
    Cl(r) = 0

Time = 0.0345

Courant Number mean: 0.00491546 max: 0.0361711
smoothSolver:  Solving for Ux, Initial residual = 0.00144985, Final residual = 3.01868e-08, No Iterations 5
smoothSolver:  Solving for Uy, Initial residual = 0.0295187, Final residual = 4.41689e-08, No Iterations 6
DICPCG:  Solving for p, Initial residual = 0.992308, Final residual = 8.10812e-08, No Iterations 170
time step continuity errors : sum local = 8.92622e-13, global = 7.21506e-15, cumulative = 2.97411e-15
DICPCG:  Solving for p, Initial residual = 0.976285, Final residual = 8.07461e-08, No Iterations 170
time step continuity errors : sum local = 9.16798e-13, global = -7.26377e-15, cumulative = -4.28966e-15
ExecutionTime = 20.67 s  ClockTime = 23 s

forces forces write:
    sum of forces:
        pressure : (0 0 0)
        viscous  : (0 0 0)
        porous   : (0 0 0)
    sum of moments:
        pressure : (0 0 0)
        viscous  : (0 0 0)
        porous   : (0 0 0)

forceCoeffs forceCoeffs write:
    Cm    = 0
    Cd    = 0
    Cl    = 0
    Cl(f) = 0
    Cl(r) = 0

Time = 0.035

Courant Number mean: 0.00491525 max: 0.0361169
smoothSolver:  Solving for Ux, Initial residual = 0.00150984, Final residual = 3.17817e-08, No Iterations 5
smoothSolver:  Solving for Uy, Initial residual = 0.0309979, Final residual = 4.64984e-08, No Iterations 6
DICPCG:  Solving for p, Initial residual = 0.992484, Final residual = 9.99584e-08, No Iterations 169
time step continuity errors : sum local = 1.16397e-12, global = 7.15639e-15, cumulative = 2.86672e-15
DICPCG:  Solving for p, Initial residual = 0.976812, Final residual = 9.96576e-08, No Iterations 169
time step continuity errors : sum local = 1.19635e-12, global = -7.31219e-15, cumulative = -4.44547e-15
ExecutionTime = 20.94 s  ClockTime = 23 s

forces forces write:
    sum of forces:
        pressure : (0 0 0)
        viscous  : (0 0 0)
        porous   : (0 0 0)
    sum of moments:
        pressure : (0 0 0)
        viscous  : (0 0 0)
        porous   : (0 0 0)

forceCoeffs forceCoeffs write:
    Cm    = 0
    Cd    = 0
    Cl    = 0
    Cl(f) = 0
    Cl(r) = 0

Time = 0.0355

Courant Number mean: 0.00491505 max: 0.0360627
smoothSolver:  Solving for Ux, Initial residual = 0.00157389, Final residual = 3.34723e-08, No Iterations 5
smoothSolver:  Solving for Uy, Initial residual = 0.0325521, Final residual = 4.8946e-08, No Iterations 6
DICPCG:  Solving for p, Initial residual = 0.992658, Final residual = 8.09909e-08, No Iterations 170
time step continuity errors : sum local = 9.97489e-13, global = 8.07162e-15, cumulative = 3.62615e-15
DICPCG:  Solving for p, Initial residual = 0.977353, Final residual = 9.76147e-08, No Iterations 169
time step continuity errors : sum local = 1.23892e-12, global = -7.75479e-15, cumulative = -4.12864e-15
ExecutionTime = 21.2 s  ClockTime = 23 s

forces forces write:
    sum of forces:
        pressure : (0 0 0)
        viscous  : (0 0 0)
        porous   : (0 0 0)
    sum of moments:
        pressure : (0 0 0)
        viscous  : (0 0 0)
        porous   : (0 0 0)

forceCoeffs forceCoeffs write:
    Cm    = 0
    Cd    = 0
    Cl    = 0
    Cl(f) = 0
    Cl(r) = 0

Time = 0.036

Courant Number mean: 0.00491486 max: 0.0360143
smoothSolver:  Solving for Ux, Initial residual = 0.00164202, Final residual = 3.52616e-08, No Iterations 5
smoothSolver:  Solving for Uy, Initial residual = 0.034186, Final residual = 5.15169e-08, No Iterations 6
DICPCG:  Solving for p, Initial residual = 0.992833, Final residual = 8.11192e-08, No Iterations 170
time step continuity errors : sum local = 1.05664e-12, global = 8.55465e-15, cumulative = 4.42601e-15
DICPCG:  Solving for p, Initial residual = 0.977846, Final residual = 8.02588e-08, No Iterations 170
time step continuity errors : sum local = 1.07702e-12, global = -8.59877e-15, cumulative = -4.17276e-15
ExecutionTime = 21.47 s  ClockTime = 23 s

forces forces write:
    sum of forces:
        pressure : (0 0 0)
        viscous  : (0 0 0)
        porous   : (0 0 0)
    sum of moments:
        pressure : (0 0 0)
        viscous  : (0 0 0)
        porous   : (0 0 0)

forceCoeffs forceCoeffs write:
    Cm    = 0
    Cd    = 0
    Cl    = 0
    Cl(f) = 0
    Cl(r) = 0

Time = 0.0365

Courant Number mean: 0.00491467 max: 0.0359675
smoothSolver:  Solving for Ux, Initial residual = 0.00171473, Final residual = 3.71578e-08, No Iterations 5
smoothSolver:  Solving for Uy, Initial residual = 0.0359043, Final residual = 5.42162e-08, No Iterations 6
DICPCG:  Solving for p, Initial residual = 0.992985, Final residual = 8.13925e-08, No Iterations 170
time step continuity errors : sum local = 1.12143e-12, global = 9.08288e-15, cumulative = 4.91012e-15
DICPCG:  Solving for p, Initial residual = 0.978304, Final residual = 8.02612e-08, No Iterations 170
time step continuity errors : sum local = 1.13884e-12, global = -9.11225e-15, cumulative = -4.20214e-15
ExecutionTime = 21.75 s  ClockTime = 24 s

forces forces write:
    sum of forces:
        pressure : (0 0 0)
        viscous  : (0 0 0)
        porous   : (0 0 0)
    sum of moments:
        pressure : (0 0 0)
        viscous  : (0 0 0)
        porous   : (0 0 0)

forceCoeffs forceCoeffs write:
    Cm    = 0
    Cd    = 0
    Cl    = 0
    Cl(f) = 0
    Cl(r) = 0

Time = 0.037

Courant Number mean: 0.00491449 max: 0.0364772
smoothSolver:  Solving for Ux, Initial residual = 0.00179224, Final residual = 3.9166e-08, No Iterations 5
smoothSolver:  Solving for Uy, Initial residual = 0.0377107, Final residual = 5.70495e-08, No Iterations 6
DICPCG:  Solving for p, Initial residual = 0.993093, Final residual = 8.16513e-08, No Iterations 170
time step continuity errors : sum local = 1.18988e-12, global = 9.53254e-15, cumulative = 5.3304e-15
DICPCG:  Solving for p, Initial residual = 0.978692, Final residual = 9.75012e-08, No Iterations 169
time step continuity errors : sum local = 1.46291e-12, global = -9.25347e-15, cumulative = -3.92307e-15
ExecutionTime = 22.01 s  ClockTime = 24 s

forces forces write:
    sum of forces:
        pressure : (0 0 0)
[...]
ExecutionTime = 46.73 s  ClockTime = 49 s

forces forces write:
    sum of forces:
        pressure : (0 0 0)
        viscous  : (0 0 0)
        porous   : (0 0 0)
    sum of moments:
        pressure : (0 0 0)
        viscous  : (0 0 0)
        porous   : (0 0 0)

forceCoeffs forceCoeffs write:
    Cm    = 0
    Cd    = 0
    Cl    = 0
    Cl(f) = 0
    Cl(r) = 0

Time = 0.083

Courant Number mean: 0.00524625 max: 1.51613
smoothSolver:  Solving for Ux, Initial residual = 0.0203674, Final residual = 1.43869e-08, No Iterations 6
smoothSolver:  Solving for Uy, Initial residual = 0.436949, Final residual = 2.52458e-08, No Iterations 7
DICPCG:  Solving for p, Initial residual = 0.996156, Final residual = 8.01843e-08, No Iterations 170
time step continuity errors : sum local = 5.38521e-11, global = 3.97306e-13, cumulative = 7.48158e-13
DICPCG:  Solving for p, Initial residual = 0.994281, Final residual = 7.89134e-08, No Iterations 170
time step continuity errors : sum local = 5.30586e-11, global = -4.10781e-13, cumulative = 3.37377e-13
ExecutionTime = 47 s  ClockTime = 49 s

forces forces write:
    sum of forces:
        pressure : (0 0 0)
        viscous  : (0 0 0)
        porous   : (0 0 0)
    sum of moments:
        pressure : (0 0 0)
        viscous  : (0 0 0)
        porous   : (0 0 0)

forceCoeffs forceCoeffs write:
    Cm    = 0
    Cd    = 0
    Cl    = 0
    Cl(f) = 0
    Cl(r) = 0

Time = 0.0835

Courant Number mean: 0.00525485 max: 1.52012
smoothSolver:  Solving for Ux, Initial residual = 0.0199342, Final residual = 1.39531e-08, No Iterations 6
smoothSolver:  Solving for Uy, Initial residual = 0.433756, Final residual = 2.48417e-08, No Iterations 7
DICPCG:  Solving for p, Initial residual = 0.996084, Final residual = 7.94189e-08, No Iterations 170
time step continuity errors : sum local = 5.31899e-11, global = 4.12215e-13, cumulative = 7.49592e-13
DICPCG:  Solving for p, Initial residual = 0.994135, Final residual = 7.98331e-08, No Iterations 170
time step continuity errors : sum local = 5.35239e-11, global = -4.03545e-13, cumulative = 3.46047e-13
ExecutionTime = 47.27 s  ClockTime = 49 s

forces forces write:
    sum of forces:
        pressure : (0 0 0)
        viscous  : (0 0 0)
        porous   : (0 0 0)
    sum of moments:
        pressure : (0 0 0)
        viscous  : (0 0 0)
        porous   : (0 0 0)

forceCoeffs forceCoeffs write:
    Cm    = 0
    Cd    = 0
    Cl    = 0
    Cl(f) = 0
    Cl(r) = 0

Time = 0.084

Courant Number mean: 0.00526334 max: 1.52076
smoothSolver:  Solving for Ux, Initial residual = 0.0195142, Final residual = 1.35571e-08, No Iterations 6
smoothSolver:  Solving for Uy, Initial residual = 0.430308, Final residual = 2.44582e-08, No Iterations 7
DICPCG:  Solving for p, Initial residual = 0.995965, Final residual = 8.09683e-08, No Iterations 170
time step continuity errors : sum local = 5.40504e-11, global = 4.05059e-13, cumulative = 7.51106e-13
DICPCG:  Solving for p, Initial residual = 0.993937, Final residual = 8.06108e-08, No Iterations 170
time step continuity errors : sum local = 5.38677e-11, global = -4.03815e-13, cumulative = 3.47291e-13
ExecutionTime = 47.53 s  ClockTime = 49 s

forces forces write:
    sum of forces:
        pressure : (0 0 0)
        viscous  : (0 0 0)
        porous   : (0 0 0)
    sum of moments:
        pressure : (0 0 0)
        viscous  : (0 0 0)
        porous   : (0 0 0)

forceCoeffs forceCoeffs write:
    Cm    = 0
    Cd    = 0
    Cl    = 0
    Cl(f) = 0
    Cl(r) = 0

Time = 0.0845

Courant Number mean: 0.0052718 max: 1.5184
smoothSolver:  Solving for Ux, Initial residual = 0.0191099, Final residual = 1.31958e-08, No Iterations 6
smoothSolver:  Solving for Uy, Initial residual = 0.426658, Final residual = 2.40942e-08, No Iterations 7
DICPCG:  Solving for p, Initial residual = 0.995855, Final residual = 8.10731e-08, No Iterations 170
time step continuity errors : sum local = 5.39208e-11, global = 3.99529e-13, cumulative = 7.46819e-13
DICPCG:  Solving for p, Initial residual = 0.993748, Final residual = 8.10406e-08, No Iterations 170
time step continuity errors : sum local = 5.39542e-11, global = -4.02287e-13, cumulative = 3.44533e-13
ExecutionTime = 47.8 s  ClockTime = 50 s

forces forces write:
    sum of forces:
        pressure : (0 0 0)
        viscous  : (0 0 0)
        porous   : (0 0 0)
    sum of moments:
        pressure : (0 0 0)
        viscous  : (0 0 0)
        porous   : (0 0 0)

forceCoeffs forceCoeffs write:
    Cm    = 0
    Cd    = 0
    Cl    = 0
    Cl(f) = 0
    Cl(r) = 0

Time = 0.085

Courant Number mean: 0.00528017 max: 1.51341
smoothSolver:  Solving for Ux, Initial residual = 0.0187187, Final residual = 1.28653e-08, No Iterations 6
smoothSolver:  Solving for Uy, Initial residual = 0.422848, Final residual = 2.37478e-08, No Iterations 7
DICPCG:  Solving for p, Initial residual = 0.995729, Final residual = 8.06047e-08, No Iterations 170
time step continuity errors : sum local = 5.33926e-11, global = 4.02806e-13, cumulative = 7.47338e-13
DICPCG:  Solving for p, Initial residual = 0.993549, Final residual = 7.94786e-08, No Iterations 170
time step continuity errors : sum local = 5.27008e-11, global = -4.09457e-13, cumulative = 3.37881e-13
ExecutionTime = 48.07 s  ClockTime = 50 s

forces forces write:
    sum of forces:
        pressure : (0 0 0)
        viscous  : (0 0 0)
        porous   : (0 0 0)
    sum of moments:
        pressure : (0 0 0)
        viscous  : (0 0 0)
        porous   : (0 0 0)

forceCoeffs forceCoeffs write:
    Cm    = 0
    Cd    = 0
    Cl    = 0
    Cl(f) = 0
    Cl(r) = 0

Time = 0.0855

Courant Number mean: 0.00528846 max: 1.50619
smoothSolver:  Solving for Ux, Initial residual = 0.0183412, Final residual = 1.25629e-08, No Iterations 6
smoothSolver:  Solving for Uy, Initial residual = 0.418938, Final residual = 2.34199e-08, No Iterations 7
DICPCG:  Solving for p, Initial residual = 0.995591, Final residual = 8.02791e-08, No Iterations 170
time step continuity errors : sum local = 5.29468e-11, global = 4.0512e-13, cumulative = 7.43001e-13
DICPCG:  Solving for p, Initial residual = 0.993333, Final residual = 7.9696e-08, No Iterations 170
time step continuity errors : sum local = 5.26171e-11, global = -4.03218e-13, cumulative = 3.39783e-13
ExecutionTime = 48.33 s  ClockTime = 50 s

forces forces write:
    sum of forces:
        pressure : (0 0 0)
        viscous  : (0 0 0)
        porous   : (0 0 0)
    sum of moments:
        pressure : (0 0 0)
        viscous  : (0 0 0)
        porous   : (0 0 0)

forceCoeffs forceCoeffs write:
    Cm    = 0
    Cd    = 0
    Cl    = 0
    Cl(f) = 0
    Cl(r) = 0

Time = 0.086

Courant Number mean: 0.00529671 max: 1.49718
smoothSolver:  Solving for Ux, Initial residual = 0.0179768, Final residual = 1.22867e-08, No Iterations 6
smoothSolver:  Solving for Uy, Initial residual = 0.414961, Final residual = 2.31103e-08, No Iterations 7
DICPCG:  Solving for p, Initial residual = 0.995458, Final residual = 8.14373e-08, No Iterations 170
time step continuity errors : sum local = 5.34646e-11, global = 3.99611e-13, cumulative = 7.39394e-13
DICPCG:  Solving for p, Initial residual = 0.993142, Final residual = 8.02994e-08, No Iterations 170
time step continuity errors : sum local = 5.27735e-11, global = -4.00055e-13, cumulative = 3.39339e-13
ExecutionTime = 48.6 s  ClockTime = 51 s

forces forces write:
    sum of forces:
        pressure : (0 0 0)
        viscous  : (0 0 0)
        porous   : (0 0 0)
    sum of moments:
        pressure : (0 0 0)
        viscous  : (0 0 0)
        porous   : (0 0 0)

forceCoeffs forceCoeffs write:
    Cm    = 0
    Cd    = 0
    Cl    = 0
    Cl(f) = 0
    Cl(r) = 0

Time = 0.0865

Courant Number mean: 0.00530492 max: 1.48681
smoothSolver:  Solving for Ux, Initial residual = 0.0176267, Final residual = 1.20358e-08, No Iterations 6
smoothSolver:  Solving for Uy, Initial residual = 0.410852, Final residual = 2.28191e-08, No Iterations 7
DICPCG:  Solving for p, Initial residual = 0.99534, Final residual = 8.06718e-08, No Iterations 170
time step continuity errors : sum local = 5.27083e-11, global = 3.97896e-13, cumulative = 7.37235e-13
DICPCG:  Solving for p, Initial residual = 0.992992, Final residual = 8.12783e-08, No Iterations 170
time step continuity errors : sum local = 5.31609e-11, global = -3.96717e-13, cumulative = 3.40518e-13
ExecutionTime = 48.86 s  ClockTime = 51 s

forces forces write:
    sum of forces:
        pressure : (0 0 0)
        viscous  : (0 0 0)
        porous   : (0 0 0)
    sum of moments:
        pressure : (0 0 0)
        viscous  : (0 0 0)
        porous   : (0 0 0)

forceCoeffs forceCoeffs write:
    Cm    = 0
    Cd    = 0
    Cl    = 0
    Cl(f) = 0
    Cl(r) = 0

Time = 0.087

Courant Number mean: 0.00531305 max: 1.47531
smoothSolver:  Solving for Ux, Initial residual = 0.0172886, Final residual = 1.1807e-08, No Iterations 6
smoothSolver:  Solving for Uy, Initial residual = 0.406723, Final residual = 2.25506e-08, No Iterations 7
DICPCG:  Solving for p, Initial residual = 0.995225, Final residual = 8.14779e-08, No Iterations 170
time step continuity errors : sum local = 5.29711e-11, global = 3.95637e-13, cumulative = 7.36155e-13
DICPCG:  Solving for p, Initial residual = 0.992854, Final residual = 9.91975e-08, No Iterations 169
time step continuity errors : sum local = 6.45609e-11, global = -3.25417e-13, cumulative = 4.10738e-13
ExecutionTime = 49.13 s  ClockTime = 51 s

forces forces write:
    sum of forces:
        pressure : (0 0 0)
        viscous  : (0 0 0)
        porous   : (0 0 0)
    sum of moments:
        pressure : (0 0 0)
        viscous  : (0 0 0)
        porous   : (0 0 0)

forceCoeffs forceCoeffs write:
    Cm    = 0
    Cd    = 0
    Cl    = 0
    Cl(f) = 0
    Cl(r) = 0

Time = 0.0875

Courant Number mean: 0.00532107 max: 1.46278
smoothSolver:  Solving for Ux, Initial residual = 0.016964, Final residual = 1.16004e-08, No Iterations 6
smoothSolver:  Solving for Uy, Initial residual = 0.402564, Final residual = 2.23066e-08, No Iterations 7
DICPCG:  Solving for p, Initial residual = 0.995143, Final residual = 8.03977e-08, No Iterations 170
time step continuity errors : sum local = 5.2003e-11, global = 4.02954e-13, cumulative = 8.13692e-13
DICPCG:  Solving for p, Initial residual = 0.992777, Final residual = 8.08568e-08, No Iterations 170
time step continuity errors : sum local = 5.23565e-11, global = -3.92993e-13, cumulative = 4.20699e-13
ExecutionTime = 49.4 s  ClockTime = 51 s

forces forces write:
    sum of forces:
        pressure : (0 0 0)
        viscous  : (0 0 0)
        porous   : (0 0 0)
    sum of moments:
        pressure : (0 0 0)
        viscous  : (0 0 0)
        porous   : (0 0 0)

forceCoeffs forceCoeffs write:
    Cm    = 0
    Cd    = 0
    Cl    = 0
    Cl(f) = 0
    Cl(r) = 0

Time = 0.088

Courant Number mean: 0.00532904 max: 1.44906
smoothSolver:  Solving for Ux, Initial residual = 0.0166506, Final residual = 1.14116e-08, No Iterations 6
smoothSolver:  Solving for Uy, Initial residual = 0.398425, Final residual = 2.21007e-08, No Iterations 7
DICPCG:  Solving for p, Initial residual = 0.995097, Final residual = 7.91884e-08, No Iterations 170
time step continuity errors : sum local = 5.09561e-11, global = 3.96023e-13, cumulative = 8.16722e-13
DICPCG:  Solving for p, Initial residual = 0.992432, Final residual = 8.11531e-08, No Iterations 170
time step continuity errors : sum local = 5.22924e-11, global = -3.91331e-13, cumulative = 4.2539e-13
ExecutionTime = 49.67 s  ClockTime = 52 s

forces forces write:
    sum of forces:
        pressure : (0 0 0)
        viscous  : (0 0 0)
        porous   : (0 0 0)
    sum of moments:
        pressure : (0 0 0)
        viscous  : (0 0 0)
        porous   : (0 0 0)

forceCoeffs forceCoeffs write:
    Cm    = 0
    Cd    = 0
    Cl    = 0
    Cl(f) = 0
    Cl(r) = 0

Time = 0.0885

Courant Number mean: 0.00533702 max: 1.43428
smoothSolver:  Solving for Ux, Initial residual = 0.0163499, Final residual = 1.12374e-08, No Iterations 6
smoothSolver:  Solving for Uy, Initial residual = 0.39436, Final residual = 2.19224e-08, No Iterations 7
DICPCG:  Solving for p, Initial residual = 0.994738, Final residual = 8.14388e-08, No Iterations 170
time step continuity errors : sum local = 5.21474e-11, global = 3.88671e-13, cumulative = 8.14061e-13
DICPCG:  Solving for p, Initial residual = 0.991625, Final residual = 8.12318e-08, No Iterations 170
time step continuity errors : sum local = 5.21102e-11, global = -3.88785e-13, cumulative = 4.25277e-13
ExecutionTime = 49.94 s  ClockTime = 52 s

forces forces write:
    sum of forces:
        pressure : (0 0 0)
        viscous  : (0 0 0)
        porous   : (0 0 0)
    sum of moments:
        pressure : (0 0 0)
        viscous  : (0 0 0)
        porous   : (0 0 0)

forceCoeffs forceCoeffs write:
    Cm    = 0
    Cd    = 0
    Cl    = 0
    Cl(f) = 0
    Cl(r) = 0

Time = 0.089

Courant Number mean: 0.00534488 max: 1.41687
smoothSolver:  Solving for Ux, Initial residual = 0.0160591, Final residual = 1.10736e-08, No Iterations 6
smoothSolver:  Solving for Uy, Initial residual = 0.390394, Final residual = 2.17548e-08, No Iterations 7
DICPCG:  Solving for p, Initial residual = 0.99413, Final residual = 8.12857e-08, No Iterations 170
time step continuity errors : sum local = 5.18113e-11, global = 3.90863e-13, cumulative = 8.1614e-13
DICPCG:  Solving for p, Initial residual = 0.991328, Final residual = 8.06948e-08, No Iterations 170
time step continuity errors : sum local = 5.15345e-11, global = -3.85422e-13, cumulative = 4.30718e-13
ExecutionTime = 50.2 s  ClockTime = 52 s

forces forces write:
    sum of forces:
        pressure : (0 0 0)
        viscous  : (0 0 0)
        porous   : (0 0 0)
    sum of moments:
        pressure : (0 0 0)
        viscous  : (0 0 0)
        porous   : (0 0 0)

forceCoeffs forceCoeffs write:
    Cm    = 0
    Cd    = 0
    Cl    = 0
    Cl(f) = 0
    Cl(r) = 0

Time = 0.0895

Courant Number mean: 0.00535312 max: 1.39973
smoothSolver:  Solving for Ux, Initial residual = 0.0157758, Final residual = 1.09086e-08, No Iterations 6
smoothSolver:  Solving for Uy, Initial residual = 0.386634, Final residual = 2.15212e-08, No Iterations 7
DICPCG:  Solving for p, Initial residual = 0.993635, Final residual = 8.05838e-08, No Iterations 170
time step continuity errors : sum local = 5.11506e-11, global = 3.89546e-13, cumulative = 8.20264e-13
DICPCG:  Solving for p, Initial residual = 0.99089, Final residual = 8.08225e-08, No Iterations 170
time step continuity errors : sum local = 5.14134e-11, global = -3.81008e-13, cumulative = 4.39256e-13
ExecutionTime = 50.47 s  ClockTime = 52 s

forces forces write:
    sum of forces:
        pressure : (0 0 0)
        viscous  : (0 0 0)
        porous   : (0 0 0)
    sum of moments:
        pressure : (0 0 0)
        viscous  : (0 0 0)
        porous   : (0 0 0)

forceCoeffs forceCoeffs write:
    Cm    = 0
    Cd    = 0
    Cl    = 0
    Cl(f) = 0
    Cl(r) = 0

Time = 0.09

Courant Number mean: 0.00536198 max: 1.56536
smoothSolver:  Solving for Ux, Initial residual = 0.0154948, Final residual = 1.07477e-08, No Iterations 6
smoothSolver:  Solving for Uy, Initial residual = 0.382744, Final residual = 2.10866e-08, No Iterations 7
DICPCG:  Solving for p, Initial residual = 0.993184, Final residual = 8.1184e-08, No Iterations 170
time step continuity errors : sum local = 5.12721e-11, global = 3.81266e-13, cumulative = 8.20522e-13
DICPCG:  Solving for p, Initial residual = 0.989845, Final residual = 8.10387e-08, No Iterations 170
time step continuity errors : sum local = 5.13495e-11, global = -3.80961e-13, cumulative = 4.39561e-13
ExecutionTime = 50.75 s  ClockTime = 53 s

forces forces write:
    sum of forces:
        pressure : (0 0 0)
        viscous  : (0 0 0)
        porous   : (0 0 0)
    sum of moments:
        pressure : (0 0 0)
        viscous  : (0 0 0)
        porous   : (0 0 0)

forceCoeffs forceCoeffs write:
    Cm    = 0
    Cd    = 0
    Cl    = 0
    Cl(f) = 0
    Cl(r) = 0

Time = 0.0905

Courant Number mean: 0.00537141 max: 1.85603
smoothSolver:  Solving for Ux, Initial residual = 0.0151933, Final residual = 1.44439e-08, No Iterations 6
smoothSolver:  Solving for Uy, Initial residual = 0.378986, Final residual = 3.97652e-08, No Iterations 7
DICPCG:  Solving for p, Initial residual = 0.99329, Final residual = 8.05385e-08, No Iterations 170
time step continuity errors : sum local = 5.05117e-11, global = 3.85187e-13, cumulative = 8.24748e-13
DICPCG:  Solving for p, Initial residual = 0.987267, Final residual = 8.0162e-08, No Iterations 170
time step continuity errors : sum local = 5.07255e-11, global = -3.82945e-13, cumulative = 4.41803e-13
ExecutionTime = 51.02 s  ClockTime = 53 s

forces forces write:
    sum of forces:
        pressure : (0 0 0)
        viscous  : (0 0 0)
        porous   : (0 0 0)
    sum of moments:
        pressure : (0 0 0)
        viscous  : (0 0 0)
        porous   : (0 0 0)

forceCoeffs forceCoeffs write:
    Cm    = 0
    Cd    = 0
    Cl    = 0
    Cl(f) = 0
    Cl(r) = 0

Time = 0.091

Courant Number mean: 0.00538205 max: 2.40924
smoothSolver:  Solving for Ux, Initial residual = 0.0148362, Final residual = 6.55285e-08, No Iterations 10
smoothSolver:  Solving for Uy, Initial residual = 0.377358, Final residual = 5.31132e-08, No Iterations 15
DICPCG:  Solving for p, Initial residual = 0.990736, Final residual = 7.93401e-08, No Iterations 170
time step continuity errors : sum local = 4.94457e-11, global = 3.92623e-13, cumulative = 8.34426e-13
DICPCG:  Solving for p, Initial residual = 0.981934, Final residual = 7.91125e-08, No Iterations 170
time step continuity errors : sum local = 5.02388e-11, global = -3.86738e-13, cumulative = 4.47689e-13
ExecutionTime = 51.3 s  ClockTime = 53 s

forces forces write:
    sum of forces:
        pressure : (0 0 0)
        viscous  : (0 0 0)
        porous   : (0 0 0)
    sum of moments:
        pressure : (0 0 0)
        viscous  : (0 0 0)
        porous   : (0 0 0)

forceCoeffs forceCoeffs write:
    Cm    = 0
    Cd    = 0
    Cl    = 0
    Cl(f) = 0
    Cl(r) = 0

Time = 0.0915

Courant Number mean: 0.00539617 max: 3.48752
smoothSolver:  Solving for Ux, Initial residual = 0.0143873, Final residual = 7.36717e+07, No Iterations 1000
smoothSolver:  Solving for Uy, Initial residual = 0.381572, Final residual = 5.60789e+09, No Iterations 1000
DICPCG:  Solving for p, Initial residual = 1, Final residual = 8.25562e-08, No Iterations 164
time step continuity errors : sum local = 0.971559, global = 0.0115319, cumulative = 0.0115319
DICPCG:  Solving for p, Initial residual = 0.722008, Final residual = 9.27093e-08, No Iterations 167
time step continuity errors : sum local = 2.08499, global = -0.0164996, cumulative = -0.00496774
ExecutionTime = 54.3 s  ClockTime = 56 s

forces forces write:
    sum of forces:
        pressure : (0 0 0)
        viscous  : (0 0 0)
        porous   : (0 0 0)
    sum of moments:
        pressure : (0 0 0)
        viscous  : (0 0 0)
        porous   : (0 0 0)

forceCoeffs forceCoeffs write:
    Cm    = 0
    Cd    = 0
    Cl    = 0
    Cl(f) = 0
    Cl(r) = 0

Time = 0.092

Courant Number mean: 8.64699e+06 max: 4.53509e+11
#0  Foam::error::printStack(Foam::Ostream&) at ??:?
#1  Foam::sigFpe::sigHandler(int) at ??:?
#2  ? in "/lib64/libpthread.so.0"
#3  Foam::symGaussSeidelSmoother::smooth(Foam::word const&, Foam::Field<double>&, Foam::lduMatrix const&, Foam::Field<double> const&, Foam::FieldField<Foam::Field, double> const&, Foam::UPtrList<Foam::lduInterfaceField const> const&, unsigned char, int) at ??:?
#4  Foam::symGaussSeidelSmoother::smooth(Foam::Field<double>&, Foam::Field<double> const&, unsigned char, int) const at ??:?
#5  Foam::smoothSolver::solve(Foam::Field<double>&, Foam::Field<double> const&, unsigned char) const at ??:?
#6  ? at ??:?
#7  ? at ??:?
#8  ? at ??:?
#9  ? at ??:?
#10  __libc_start_main in "/lib64/libc.so.6"
#11  ? at ??:?
