/*---------------------------------------------------------------------------*\
  =========                 |
  \\      /  F ield         | OpenFOAM: The Open Source CFD Toolbox
   \\    /   O peration     | Website:  https://openfoam.org
    \\  /    A nd           | Version:  7
     \\/     M anipulation  |
\*---------------------------------------------------------------------------*/
Build  : 7-49b2b3b8b082
Exec   : decomposePar
Date   : Apr 24 2022
Time   : 19:42:02
Host   : "c415-003.stampede2.tacc.utexas.edu"
PID    : 115206
I/O    : uncollated
Case   : /work2/07705/jmj3957/stampede2/COE347FinalProject/diamond_test
nProcs : 1
sigFpe : Enabling floating point exception trapping (FOAM_SIGFPE).
fileModificationChecking : Monitoring run-time modified files using timeStampMaster (fileModificationSkew 10)
allowSystemOperations : Allowing user-supplied system call operations

// * * * * * * * * * * * * * * * * * * * * * * * * * * * * * * * * * * * * * //
Create time



Decomposing mesh region0

Create mesh

Calculating distribution of cells
 Foam::decompositionMethod::New 
{
    numberOfSubdomains 36;
    method          hierarchical;
    simpleCoeffs
    {
        n               ( 6 6 1 );
        delta           0.0002;
    }
    hierarchicalCoeffs
    {
        n               ( 6 6 1 );
        delta           0.0002;
        order           xyz;
    }
}

Selecting decompositionMethod hierarchical

Finished decomposition in 0.01 s

Calculating original mesh data

Distributing cells to processors

Distributing faces to processors

Distributing points to processors

Constructing processor meshes

Processor 0
    Number of cells = 333
    Number of faces shared with processor 1 = 27
    Number of faces shared with processor 6 = 22
    Number of faces shared with processor 7 = 1
    Number of processor patches = 3
    Number of processor faces = 50
    Number of boundary faces = 704

Processor 1
    Number of cells = 333
    Number of faces shared with processor 0 = 27
    Number of faces shared with processor 2 = 30
    Number of faces shared with processor 7 = 17
    Number of faces shared with processor 8 = 5
    Number of processor patches = 4
    Number of processor faces = 79
    Number of boundary faces = 677

Processor 2
    Number of cells = 333
    Number of faces shared with processor 1 = 30
    Number of faces shared with processor 3 = 30
    Number of faces shared with processor 8 = 18
    Number of processor patches = 3
    Number of processor faces = 78
    Number of boundary faces = 678

Processor 3
    Number of cells = 333
    Number of faces shared with processor 2 = 30
    Number of faces shared with processor 4 = 22
    Number of faces shared with processor 8 = 3
    Number of faces shared with processor 9 = 17
    Number of faces shared with processor 10 = 7
    Number of processor patches = 5
    Number of processor faces = 79
    Number of boundary faces = 677

Processor 4
    Number of cells = 333
    Number of faces shared with processor 3 = 22
    Number of faces shared with processor 5 = 14
    Number of faces shared with processor 10 = 17
    Number of faces shared with processor 11 = 5
    Number of processor patches = 4
    Number of processor faces = 58
    Number of boundary faces = 684

Processor 5
    Number of cells = 333
    Number of faces shared with processor 4 = 14
    Number of faces shared with processor 11 = 25
    Number of processor patches = 2
    Number of processor faces = 39
    Number of boundary faces = 703

Processor 6
    Number of cells = 333
    Number of faces shared with processor 0 = 22
    Number of faces shared with processor 7 = 23
    Number of faces shared with processor 12 = 40
    Number of faces shared with processor 13 = 3
    Number of processor patches = 4
    Number of processor faces = 88
    Number of boundary faces = 678

Processor 7
    Number of cells = 333
    Number of faces shared with processor 0 = 1
    Number of faces shared with processor 1 = 17
    Number of faces shared with processor 6 = 23
    Number of faces shared with processor 8 = 16
    Number of faces shared with processor 13 = 28
    Number of faces shared with processor 14 = 9
    Number of processor patches = 6
    Number of processor faces = 94
    Number of boundary faces = 666

Processor 8
    Number of cells = 333
    Number of faces shared with processor 1 = 5
    Number of faces shared with processor 2 = 18
    Number of faces shared with processor 3 = 3
    Number of faces shared with processor 7 = 16
    Number of faces shared with processor 9 = 19
    Number of faces shared with processor 14 = 25
    Number of processor patches = 6
    Number of processor faces = 86
    Number of boundary faces = 666

Processor 9
    Number of cells = 333
    Number of faces shared with processor 3 = 17
    Number of faces shared with processor 8 = 19
    Number of faces shared with processor 10 = 17
    Number of faces shared with processor 14 = 7
    Number of faces shared with processor 15 = 27
    Number of faces shared with processor 16 = 7
    Number of processor patches = 6
    Number of processor faces = 94
    Number of boundary faces = 666

Processor 10
    Number of cells = 333
    Number of faces shared with processor 3 = 7
    Number of faces shared with processor 4 = 17
    Number of faces shared with processor 9 = 17
    Number of faces shared with processor 11 = 10
    Number of faces shared with processor 16 = 34
    Number of faces shared with processor 17 = 7
    Number of processor patches = 6
    Number of processor faces = 92
    Number of boundary faces = 666

Processor 11
    Number of cells = 333
    Number of faces shared with processor 4 = 5
    Number of faces shared with processor 5 = 25
    Number of faces shared with processor 10 = 10
    Number of faces shared with processor 17 = 26
    Number of processor patches = 4
    Number of processor faces = 66
    Number of boundary faces = 680

Processor 12
    Number of cells = 333
    Number of faces shared with processor 6 = 40
    Number of faces shared with processor 13 = 23
    Number of faces shared with processor 18 = 55
    Number of faces shared with processor 19 = 8
    Number of processor patches = 4
    Number of processor faces = 126
    Number of boundary faces = 672

Processor 13
    Number of cells = 333
    Number of faces shared with processor 6 = 3
    Number of faces shared with processor 7 = 28
    Number of faces shared with processor 12 = 23
    Number of faces shared with processor 14 = 10
    Number of faces shared with processor 19 = 7
    Number of processor patches = 5
    Number of processor faces = 71
    Number of boundary faces = 689

Processor 14
    Number of cells = 333
    Number of faces shared with processor 7 = 9
    Number of faces shared with processor 8 = 25
    Number of faces shared with processor 9 = 7
    Number of faces shared with processor 13 = 10
    Number of faces shared with processor 15 = 12
    Number of faces shared with processor 20 = 3
    Number of faces shared with processor 21 = 3
    Number of processor patches = 7
    Number of processor faces = 69
    Number of boundary faces = 697

Processor 15
    Number of cells = 333
    Number of faces shared with processor 9 = 27
    Number of faces shared with processor 14 = 12
    Number of faces shared with processor 16 = 18
    Number of faces shared with processor 21 = 11
    Number of faces shared with processor 22 = 5
    Number of processor patches = 5
    Number of processor faces = 73
    Number of boundary faces = 689

Processor 16
    Number of cells = 333
    Number of faces shared with processor 9 = 7
    Number of faces shared with processor 10 = 34
    Number of faces shared with processor 15 = 18
    Number of faces shared with processor 17 = 7
    Number of faces shared with processor 22 = 46
    Number of processor patches = 5
    Number of processor faces = 112
    Number of boundary faces = 666

Processor 17
    Number of cells = 333
    Number of faces shared with processor 10 = 7
    Number of faces shared with processor 11 = 26
    Number of faces shared with processor 16 = 7
    Number of faces shared with processor 22 = 3
    Number of faces shared with processor 23 = 29
    Number of processor patches = 5
    Number of processor faces = 72
    Number of boundary faces = 678

Processor 18
    Number of cells = 333
    Number of faces shared with processor 12 = 55
    Number of faces shared with processor 19 = 28
    Number of faces shared with processor 24 = 43
    Number of processor patches = 3
    Number of processor faces = 126
    Number of boundary faces = 670

Processor 19
    Number of cells = 333
    Number of faces shared with processor 12 = 8
    Number of faces shared with processor 13 = 7
    Number of faces shared with processor 18 = 28
    Number of faces shared with processor 20 = 11
    Number of faces shared with processor 24 = 1
    Number of faces shared with processor 25 = 27
    Number of processor patches = 6
    Number of processor faces = 82
    Number of boundary faces = 700

Processor 20
    Number of cells = 333
    Number of faces shared with processor 14 = 3
    Number of faces shared with processor 19 = 11
    Number of faces shared with processor 21 = 7
    Number of faces shared with processor 25 = 4
    Number of faces shared with processor 26 = 29
    Number of faces shared with processor 27 = 13
    Number of processor patches = 6
    Number of processor faces = 67
    Number of boundary faces = 693

Processor 21
    Number of cells = 333
    Number of faces shared with processor 14 = 3
    Number of faces shared with processor 15 = 11
    Number of faces shared with processor 20 = 7
    Number of faces shared with processor 22 = 23
    Number of faces shared with processor 27 = 30
    Number of processor patches = 5
    Number of processor faces = 74
    Number of boundary faces = 688

Processor 22
    Number of cells = 333
    Number of faces shared with processor 15 = 5
    Number of faces shared with processor 16 = 46
    Number of faces shared with processor 17 = 3
    Number of faces shared with processor 21 = 23
    Number of faces shared with processor 23 = 5
    Number of faces shared with processor 27 = 1
    Number of faces shared with processor 28 = 35
    Number of processor patches = 7
    Number of processor faces = 118
    Number of boundary faces = 666

Processor 23
    Number of cells = 333
    Number of faces shared with processor 17 = 29
    Number of faces shared with processor 22 = 5
    Number of faces shared with processor 28 = 8
    Number of faces shared with processor 29 = 27
    Number of processor patches = 4
    Number of processor faces = 69
    Number of boundary faces = 679

Processor 24
    Number of cells = 333
    Number of faces shared with processor 18 = 43
    Number of faces shared with processor 19 = 1
    Number of faces shared with processor 25 = 22
    Number of faces shared with processor 30 = 24
    Number of faces shared with processor 31 = 1
    Number of processor patches = 5
    Number of processor faces = 91
    Number of boundary faces = 677

Processor 25
    Number of cells = 333
    Number of faces shared with processor 19 = 27
    Number of faces shared with processor 20 = 4
    Number of faces shared with processor 24 = 22
    Number of faces shared with processor 26 = 20
    Number of faces shared with processor 31 = 15
    Number of processor patches = 5
    Number of processor faces = 88
    Number of boundary faces = 666

Processor 26
    Number of cells = 333
    Number of faces shared with processor 20 = 29
    Number of faces shared with processor 25 = 20
    Number of faces shared with processor 27 = 14
    Number of faces shared with processor 31 = 3
    Number of faces shared with processor 32 = 19
    Number of faces shared with processor 33 = 9
    Number of processor patches = 6
    Number of processor faces = 94
    Number of boundary faces = 666

Processor 27
    Number of cells = 333
    Number of faces shared with processor 20 = 13
    Number of faces shared with processor 21 = 30
    Number of faces shared with processor 22 = 1
    Number of faces shared with processor 26 = 14
    Number of faces shared with processor 28 = 19
    Number of faces shared with processor 33 = 17
    Number of processor patches = 6
    Number of processor faces = 94
    Number of boundary faces = 666

Processor 28
    Number of cells = 333
    Number of faces shared with processor 22 = 35
    Number of faces shared with processor 23 = 8
    Number of faces shared with processor 27 = 19
    Number of faces shared with processor 29 = 7
    Number of faces shared with processor 33 = 8
    Number of faces shared with processor 34 = 19
    Number of processor patches = 6
    Number of processor faces = 96
    Number of boundary faces = 666

Processor 29
    Number of cells = 333
    Number of faces shared with processor 23 = 27
    Number of faces shared with processor 28 = 7
    Number of faces shared with processor 34 = 6
    Number of faces shared with processor 35 = 26
    Number of processor patches = 4
    Number of processor faces = 66
    Number of boundary faces = 680

Processor 30
    Number of cells = 335
    Number of faces shared with processor 24 = 24
    Number of faces shared with processor 31 = 31
    Number of processor patches = 2
    Number of processor faces = 55
    Number of boundary faces = 707

Processor 31
    Number of cells = 335
    Number of faces shared with processor 24 = 1
    Number of faces shared with processor 25 = 15
    Number of faces shared with processor 26 = 3
    Number of faces shared with processor 30 = 31
    Number of faces shared with processor 32 = 29
    Number of processor patches = 5
    Number of processor faces = 79
    Number of boundary faces = 681

Processor 32
    Number of cells = 335
    Number of faces shared with processor 26 = 19
    Number of faces shared with processor 31 = 29
    Number of faces shared with processor 33 = 26
    Number of processor patches = 3
    Number of processor faces = 74
    Number of boundary faces = 682

Processor 33
    Number of cells = 335
    Number of faces shared with processor 26 = 9
    Number of faces shared with processor 27 = 17
    Number of faces shared with processor 28 = 8
    Number of faces shared with processor 32 = 26
    Number of faces shared with processor 34 = 21
    Number of processor patches = 5
    Number of processor faces = 81
    Number of boundary faces = 681

Processor 34
    Number of cells = 335
    Number of faces shared with processor 28 = 19
    Number of faces shared with processor 29 = 6
    Number of faces shared with processor 33 = 21
    Number of faces shared with processor 35 = 14
    Number of processor patches = 4
    Number of processor faces = 60
    Number of boundary faces = 688

Processor 35
    Number of cells = 335
    Number of faces shared with processor 29 = 26
    Number of faces shared with processor 34 = 14
    Number of processor patches = 2
    Number of processor faces = 40
    Number of boundary faces = 708

Number of processor faces = 1440
Max number of cells = 335 (0.5% above average 333.333)
Max number of processor patches = 7 (50% above average 4.66667)
Max number of faces between processors = 126 (57.5% above average 80)

Time = 0

Processor 0: field transfer
Processor 1: field transfer
Processor 2: field transfer
Processor 3: field transfer
Processor 4: field transfer
Processor 5: field transfer
Processor 6: field transfer
Processor 7: field transfer
Processor 8: field transfer
Processor 9: field transfer
Processor 10: field transfer
Processor 11: field transfer
Processor 12: field transfer
Processor 13: field transfer
Processor 14: field transfer
Processor 15: field transfer
Processor 16: field transfer
Processor 17: field transfer
Processor 18: field transfer
Processor 19: field transfer
Processor 20: field transfer
Processor 21: field transfer
Processor 22: field transfer
Processor 23: field transfer
Processor 24: field transfer
Processor 25: field transfer
Processor 26: field transfer
Processor 27: field transfer
Processor 28: field transfer
Processor 29: field transfer
Processor 30: field transfer
Processor 31: field transfer
Processor 32: field transfer
Processor 33: field transfer
Processor 34: field transfer
Processor 35: field transfer

End

