/*---------------------------------------------------------------------------*\
  =========                 |
  \\      /  F ield         | OpenFOAM: The Open Source CFD Toolbox
   \\    /   O peration     | Website:  https://openfoam.org
    \\  /    A nd           | Version:  7
     \\/     M anipulation  |
\*---------------------------------------------------------------------------*/
Build  : 7-49b2b3b8b082
Exec   : blockMesh
Date   : Apr 24 2022
Time   : 20:32:59
Host   : "c401-033.stampede2.tacc.utexas.edu"
PID    : 12536
I/O    : uncollated
Case   : /work2/07705/jmj3957/stampede2/COE347FinalProject/diamond_test
nProcs : 1
sigFpe : Enabling floating point exception trapping (FOAM_SIGFPE).
fileModificationChecking : Monitoring run-time modified files using timeStampMaster (fileModificationSkew 10)
allowSystemOperations : Allowing user-supplied system call operations

// * * * * * * * * * * * * * * * * * * * * * * * * * * * * * * * * * * * * * //
Create time

Deleting polyMesh directory
    "/work2/07705/jmj3957/stampede2/COE347FinalProject/diamond_test/constant/polyMesh"
Creating block mesh from
    "/work2/07705/jmj3957/stampede2/COE347FinalProject/diamond_test/system/blockMeshDict"
Creating block edges
No non-planar block faces defined
Creating topology blocks
Creating topology patches

Creating block mesh topology
--> FOAM Warning : 
    From function Foam::polyMesh::polyMesh(const Foam::IOobject &, Foam::Field<Foam::Vector<double>> &&, const Foam::List<Foam::cellShape> &, const Foam::List<Foam::List<Foam::face>> &, const Foam::List<Foam::word> &, const Foam::PtrList<Foam::dictionary> &, const Foam::word &, const Foam::word &, bool)
    in file meshes/polyMesh/polyMeshFromShapeMesh.C at line 873
    Found 40 undefined faces in mesh; adding to default patch.

Check topology

	Basic statistics
		Number of internal faces : 28
		Number of boundary faces : 64
		Number of defined boundary faces : 64
		Number of undefined boundary faces : 0
	Checking patch -> block consistency

Creating block offsets
Creating merge list .

Creating polyMesh from blockMesh
Creating points with scale 1
    Block 0 cell size :
        i : 0.00865563 .. 0.0173113 0.0090583 .. 0.0181166 0.00865563 .. 0.0173113 0.0090583 .. 0.0181166 
        j : 0.0127476 0.0124941 .. 0.0131301 0.0127476 0.0124941 .. 0.0131301 
        k : 0.1
    Block 1 cell size :
        i : 0.00969896 .. 0.0193979 0.00976785 .. 0.0195357 0.00969896 .. 0.0193979 0.00976785 .. 0.0195357 
        j : 0.0127473 .. 0.0127473 0.0130426 .. 0.0130462 0.0127473 .. 0.0127473 0.0130426 .. 0.0130462 
        k : 0.1
    Block 2 cell size :
        i : 0.00865544 .. 0.0173109 0.00855908 .. 0.0171182 0.00865544 .. 0.0173109 0.00855908 .. 0.0171182 
        j : 0.0127476 .. 0.0127476 0.0130739 .. 0.0130744 0.0127476 .. 0.0127476 0.0130739 .. 0.0130744 
        k : 0.1
    Block 3 cell size :
        i : 0.00969805 .. 0.0193961 0.00956872 .. 0.0191374 0.00969805 .. 0.0193961 0.00956872 .. 0.0191374 
        j : 0.0127473 0.0129719 .. 0.0128918 0.0127473 0.0129719 .. 0.0128918 
        k : 0.1
    Block 4 cell size :
        i : 0.00865563 .. 0.0173113 0.00905821 .. 0.0181164 0.00865563 .. 0.0173113 0.00905821 .. 0.0181164 
        j : 0.0127476 0.0124942 .. 0.0131302 0.0127476 0.0124942 .. 0.0131302 
        k : 0.1
    Block 5 cell size :
        i : 0.00969802 .. 0.019396 0.00976697 .. 0.0195339 0.00969802 .. 0.019396 0.00976697 .. 0.0195339 
        j : 0.0127473 .. 0.0127473 0.0130424 .. 0.0130461 0.0127473 .. 0.0127473 0.0130424 .. 0.0130461 
        k : 0.1
    Block 6 cell size :
        i : 0.00865544 .. 0.0173109 0.0085591 .. 0.0171182 0.00865544 .. 0.0173109 0.0085591 .. 0.0171182 
        j : 0.0127476 .. 0.0127476 0.0130741 .. 0.0130746 0.0127476 .. 0.0127476 0.0130741 .. 0.0130746 
        k : 0.1
    Block 7 cell size :
        i : 0.00969884 .. 0.0193977 0.00956947 .. 0.0191389 0.00969884 .. 0.0193977 0.00956947 .. 0.0191389 
        j : 0.0127473 0.0129717 .. 0.0128917 0.0127473 0.0129717 .. 0.0128917 
        k : 0.1
    Block 8 cell size :
        i : 0.0868702 .. 0.17374 0.0865944 .. 0.173189 0.0868702 .. 0.17374 0.0865944 .. 0.173189 
        j : 0.0359964 .. 0.0359964 0.0357408 .. 0.0354211 0.0359964 .. 0.0359964 0.0357408 .. 0.0354211 
        k : 0.1
    Block 9 cell size :
        i : 0.0919045 .. 0.183809 0.0919376 .. 0.183875 0.0919045 .. 0.183809 0.0919376 .. 0.183875 
        j : 0.0995854 .. 0.298756 0.0995304 .. 0.298591 0.0995854 .. 0.298756 0.0995304 .. 0.298591 
        k : 0.1
    Block 10 cell size :
        i : 0.0995854 .. 0.298756 0.0989421 .. 0.296826 0.0995854 .. 0.298756 0.0989421 .. 0.296826 
        j : 0.0327639 .. 0.0327639 0.0324586 .. 0.0327146 0.0327639 .. 0.0327639 0.0324586 .. 0.0327146 
        k : 0.1
    Block 11 cell size :
        i : 0.0931921 .. 0.279576 0.0932726 .. 0.279818 0.0931921 .. 0.279576 0.0932726 .. 0.279818 
        j : 0.0316751 .. 0.0316751 0.0316527 .. 0.0316559 0.0316751 .. 0.0316751 0.0316527 .. 0.0316559 
        k : 0.1
    Block 12 cell size :
        i : 0.0937153 .. 0.281146 0.0938207 .. 0.281462 0.0937153 .. 0.281146 0.0938207 .. 0.281462 
        j : 0.13658 .. 0.682899 0.136479 .. 0.682394 0.13658 .. 0.682899 0.136479 .. 0.682394 
        k : 0.1
    Block 13 cell size :
        i : 0.13658 .. 0.682899 0.135599 .. 0.677994 0.13658 .. 0.682899 0.135599 .. 0.677994 
        j : 0.0303479 .. 0.0303479 0.0296823 .. 0.0298505 0.0303479 .. 0.0303479 0.0296823 .. 0.0298505 
        k : 0.1
    Block 14 cell size :
        i : 0.118776 .. 0.593879 0.118142 .. 0.590711 0.118776 .. 0.593879 0.118142 .. 0.590711 
        j : 0.0360046 .. 0.0360046 0.035425 .. 0.0347043 0.0360046 .. 0.0360046 0.035425 .. 0.0347043 
        k : 0.1
    Block 15 cell size :
        i : 0.13017 .. 0.650849 0.130243 .. 0.651216 0.13017 .. 0.650849 0.130243 .. 0.651216 
        j : 0.0995826 .. 0.298748 0.0994578 .. 0.298373 0.0995826 .. 0.298748 0.0994578 .. 0.298373 
        k : 0.1
    Block 16 cell size :
        i : 0.0995826 .. 0.298748 0.0989396 .. 0.296819 0.0995826 .. 0.298748 0.0989396 .. 0.296819 
        j : 0.0327545 .. 0.0327545 0.0324493 .. 0.0327052 0.0327545 .. 0.0327545 0.0324493 .. 0.0327052 
        k : 0.1
    Block 17 cell size :
        i : 0.0931921 .. 0.279576 0.0932725 .. 0.279818 0.0931921 .. 0.279576 0.0932725 .. 0.279818 
        j : 0.0316836 .. 0.0316836 0.0316611 .. 0.0316643 0.0316836 .. 0.0316836 0.0316611 .. 0.0316643 
        k : 0.1
    Block 18 cell size :
        i : 0.0937167 .. 0.28115 0.0937631 .. 0.281289 0.0937167 .. 0.28115 0.0937631 .. 0.281289 
        j : 0.0947295 .. 0.189459 0.0946856 .. 0.189371 0.0947295 .. 0.189459 0.0946856 .. 0.189371 
        k : 0.1
    Block 19 cell size :
        i : 0.0947295 .. 0.189459 0.0942965 .. 0.188593 0.0947295 .. 0.189459 0.0942965 .. 0.188593 
        j : 0.0303396 .. 0.0303396 0.0300444 .. 0.0301192 0.0303396 .. 0.0303396 0.0300444 .. 0.0301192 
        k : 0.1
Creating cells
Creating patches

There are no merge patch pairs edges

Writing polyMesh
----------------
Mesh Information
----------------
  boundingBox: (-4 -4 -0.05) (6 4 0.05)
  nPoints: 24500
  nCells: 12000
  nFaces: 48250
  nInternalFaces: 23750
----------------
Patches
----------------
  patch 0 (start: 23750 size: 80) name: inlet
  patch 1 (start: 23830 size: 80) name: outlet
  patch 2 (start: 23910 size: 160) name: airfoil
  patch 3 (start: 24070 size: 90) name: top
  patch 4 (start: 24160 size: 90) name: bottom
  patch 5 (start: 24250 size: 24000) name: defaultFaces

End

