/*---------------------------------------------------------------------------*\
  =========                 |
  \\      /  F ield         | OpenFOAM: The Open Source CFD Toolbox
   \\    /   O peration     | Website:  https://openfoam.org
    \\  /    A nd           | Version:  7
     \\/     M anipulation  |
\*---------------------------------------------------------------------------*/
Build  : 7-49b2b3b8b082
Exec   : decomposePar
Date   : Apr 24 2022
Time   : 19:56:13
Host   : "c417-092.stampede2.tacc.utexas.edu"
PID    : 256709
I/O    : uncollated
Case   : /work2/07705/jmj3957/stampede2/COE347FinalProject/diamond_test
nProcs : 1
sigFpe : Enabling floating point exception trapping (FOAM_SIGFPE).
fileModificationChecking : Monitoring run-time modified files using timeStampMaster (fileModificationSkew 10)
allowSystemOperations : Allowing user-supplied system call operations

// * * * * * * * * * * * * * * * * * * * * * * * * * * * * * * * * * * * * * //
Create time



Decomposing mesh region0

Create mesh

Calculating distribution of cells
 Foam::decompositionMethod::New 
{
    numberOfSubdomains 36;
    method          hierarchical;
    simpleCoeffs
    {
        n               ( 6 6 1 );
        delta           0.0002;
    }
    hierarchicalCoeffs
    {
        n               ( 6 6 1 );
        delta           0.0002;
        order           xyz;
    }
}

Selecting decompositionMethod hierarchical

Finished decomposition in 0.01 s

Calculating original mesh data

Distributing cells to processors

Distributing faces to processors

Distributing points to processors

Constructing processor meshes

Processor 0
    Number of cells = 333
    Number of faces shared with processor 1 = 21
    Number of faces shared with processor 6 = 26
    Number of faces shared with processor 7 = 11
    Number of processor patches = 3
    Number of processor faces = 58
    Number of boundary faces = 706

Processor 1
    Number of cells = 333
    Number of faces shared with processor 0 = 21
    Number of faces shared with processor 2 = 33
    Number of faces shared with processor 7 = 25
    Number of faces shared with processor 8 = 4
    Number of processor patches = 4
    Number of processor faces = 83
    Number of boundary faces = 679

Processor 2
    Number of cells = 333
    Number of faces shared with processor 1 = 33
    Number of faces shared with processor 3 = 26
    Number of faces shared with processor 8 = 20
    Number of processor patches = 3
    Number of processor faces = 79
    Number of boundary faces = 679

Processor 3
    Number of cells = 333
    Number of faces shared with processor 2 = 26
    Number of faces shared with processor 4 = 25
    Number of faces shared with processor 8 = 11
    Number of faces shared with processor 9 = 21
    Number of faces shared with processor 10 = 5
    Number of processor patches = 5
    Number of processor faces = 88
    Number of boundary faces = 678

Processor 4
    Number of cells = 333
    Number of faces shared with processor 3 = 25
    Number of faces shared with processor 5 = 14
    Number of faces shared with processor 10 = 19
    Number of faces shared with processor 11 = 6
    Number of processor patches = 4
    Number of processor faces = 64
    Number of boundary faces = 682

Processor 5
    Number of cells = 333
    Number of faces shared with processor 4 = 14
    Number of faces shared with processor 11 = 25
    Number of processor patches = 2
    Number of processor faces = 39
    Number of boundary faces = 703

Processor 6
    Number of cells = 333
    Number of faces shared with processor 0 = 26
    Number of faces shared with processor 7 = 8
    Number of faces shared with processor 12 = 49
    Number of faces shared with processor 13 = 22
    Number of faces shared with processor 19 = 1
    Number of processor patches = 5
    Number of processor faces = 106
    Number of boundary faces = 678

Processor 7
    Number of cells = 333
    Number of faces shared with processor 0 = 11
    Number of faces shared with processor 1 = 25
    Number of faces shared with processor 6 = 8
    Number of faces shared with processor 8 = 16
    Number of faces shared with processor 13 = 32
    Number of faces shared with processor 14 = 10
    Number of processor patches = 6
    Number of processor faces = 102
    Number of boundary faces = 666

Processor 8
    Number of cells = 333
    Number of faces shared with processor 1 = 4
    Number of faces shared with processor 2 = 20
    Number of faces shared with processor 3 = 11
    Number of faces shared with processor 7 = 16
    Number of faces shared with processor 9 = 13
    Number of faces shared with processor 14 = 28
    Number of processor patches = 6
    Number of processor faces = 92
    Number of boundary faces = 666

Processor 9
    Number of cells = 333
    Number of faces shared with processor 3 = 21
    Number of faces shared with processor 8 = 13
    Number of faces shared with processor 10 = 15
    Number of faces shared with processor 14 = 9
    Number of faces shared with processor 15 = 24
    Number of faces shared with processor 16 = 14
    Number of processor patches = 6
    Number of processor faces = 96
    Number of boundary faces = 666

Processor 10
    Number of cells = 333
    Number of faces shared with processor 3 = 5
    Number of faces shared with processor 4 = 19
    Number of faces shared with processor 9 = 15
    Number of faces shared with processor 11 = 13
    Number of faces shared with processor 16 = 41
    Number of faces shared with processor 17 = 3
    Number of processor patches = 6
    Number of processor faces = 96
    Number of boundary faces = 666

Processor 11
    Number of cells = 333
    Number of faces shared with processor 4 = 6
    Number of faces shared with processor 5 = 25
    Number of faces shared with processor 10 = 13
    Number of faces shared with processor 17 = 32
    Number of processor patches = 4
    Number of processor faces = 76
    Number of boundary faces = 678

Processor 12
    Number of cells = 333
    Number of faces shared with processor 6 = 49
    Number of faces shared with processor 18 = 65
    Number of faces shared with processor 19 = 23
    Number of processor patches = 3
    Number of processor faces = 137
    Number of boundary faces = 679

Processor 13
    Number of cells = 333
    Number of faces shared with processor 6 = 22
    Number of faces shared with processor 7 = 32
    Number of faces shared with processor 14 = 9
    Number of faces shared with processor 19 = 16
    Number of processor patches = 4
    Number of processor faces = 79
    Number of boundary faces = 681

Processor 14
    Number of cells = 333
    Number of faces shared with processor 7 = 10
    Number of faces shared with processor 8 = 28
    Number of faces shared with processor 9 = 9
    Number of faces shared with processor 13 = 9
    Number of faces shared with processor 15 = 9
    Number of faces shared with processor 20 = 8
    Number of faces shared with processor 21 = 6
    Number of processor patches = 7
    Number of processor faces = 79
    Number of boundary faces = 697

Processor 15
    Number of cells = 333
    Number of faces shared with processor 9 = 24
    Number of faces shared with processor 14 = 9
    Number of faces shared with processor 16 = 7
    Number of faces shared with processor 21 = 16
    Number of faces shared with processor 22 = 32
    Number of processor patches = 5
    Number of processor faces = 88
    Number of boundary faces = 700

Processor 16
    Number of cells = 333
    Number of faces shared with processor 9 = 14
    Number of faces shared with processor 10 = 41
    Number of faces shared with processor 15 = 7
    Number of faces shared with processor 17 = 8
    Number of faces shared with processor 22 = 52
    Number of processor patches = 5
    Number of processor faces = 122
    Number of boundary faces = 666

Processor 17
    Number of cells = 333
    Number of faces shared with processor 10 = 3
    Number of faces shared with processor 11 = 32
    Number of faces shared with processor 16 = 8
    Number of faces shared with processor 22 = 3
    Number of faces shared with processor 23 = 35
    Number of processor patches = 5
    Number of processor faces = 81
    Number of boundary faces = 677

Processor 18
    Number of cells = 333
    Number of faces shared with processor 12 = 65
    Number of faces shared with processor 19 = 20
    Number of faces shared with processor 24 = 57
    Number of faces shared with processor 25 = 1
    Number of processor patches = 4
    Number of processor faces = 143
    Number of boundary faces = 671

Processor 19
    Number of cells = 333
    Number of faces shared with processor 6 = 1
    Number of faces shared with processor 12 = 23
    Number of faces shared with processor 13 = 16
    Number of faces shared with processor 18 = 20
    Number of faces shared with processor 20 = 10
    Number of faces shared with processor 25 = 24
    Number of processor patches = 6
    Number of processor faces = 94
    Number of boundary faces = 702

Processor 20
    Number of cells = 333
    Number of faces shared with processor 14 = 8
    Number of faces shared with processor 19 = 10
    Number of faces shared with processor 21 = 3
    Number of faces shared with processor 25 = 7
    Number of faces shared with processor 26 = 30
    Number of faces shared with processor 27 = 17
    Number of processor patches = 6
    Number of processor faces = 75
    Number of boundary faces = 687

Processor 21
    Number of cells = 333
    Number of faces shared with processor 14 = 6
    Number of faces shared with processor 15 = 16
    Number of faces shared with processor 20 = 3
    Number of faces shared with processor 22 = 7
    Number of faces shared with processor 27 = 32
    Number of faces shared with processor 28 = 15
    Number of processor patches = 6
    Number of processor faces = 79
    Number of boundary faces = 681

Processor 22
    Number of cells = 333
    Number of faces shared with processor 15 = 32
    Number of faces shared with processor 16 = 52
    Number of faces shared with processor 17 = 3
    Number of faces shared with processor 21 = 7
    Number of faces shared with processor 23 = 2
    Number of faces shared with processor 28 = 38
    Number of processor patches = 6
    Number of processor faces = 134
    Number of boundary faces = 666

Processor 23
    Number of cells = 333
    Number of faces shared with processor 17 = 35
    Number of faces shared with processor 22 = 2
    Number of faces shared with processor 28 = 11
    Number of faces shared with processor 29 = 30
    Number of processor patches = 4
    Number of processor faces = 78
    Number of boundary faces = 680

Processor 24
    Number of cells = 333
    Number of faces shared with processor 18 = 57
    Number of faces shared with processor 25 = 19
    Number of faces shared with processor 30 = 34
    Number of processor patches = 3
    Number of processor faces = 110
    Number of boundary faces = 674

Processor 25
    Number of cells = 333
    Number of faces shared with processor 18 = 1
    Number of faces shared with processor 19 = 24
    Number of faces shared with processor 20 = 7
    Number of faces shared with processor 24 = 19
    Number of faces shared with processor 26 = 14
    Number of faces shared with processor 30 = 7
    Number of faces shared with processor 31 = 20
    Number of processor patches = 7
    Number of processor faces = 92
    Number of boundary faces = 666

Processor 26
    Number of cells = 333
    Number of faces shared with processor 20 = 30
    Number of faces shared with processor 25 = 14
    Number of faces shared with processor 27 = 11
    Number of faces shared with processor 31 = 9
    Number of faces shared with processor 32 = 24
    Number of faces shared with processor 33 = 10
    Number of processor patches = 6
    Number of processor faces = 98
    Number of boundary faces = 666

Processor 27
    Number of cells = 333
    Number of faces shared with processor 20 = 17
    Number of faces shared with processor 21 = 32
    Number of faces shared with processor 26 = 11
    Number of faces shared with processor 28 = 14
    Number of faces shared with processor 33 = 24
    Number of faces shared with processor 34 = 4
    Number of processor patches = 6
    Number of processor faces = 102
    Number of boundary faces = 666

Processor 28
    Number of cells = 333
    Number of faces shared with processor 21 = 15
    Number of faces shared with processor 22 = 38
    Number of faces shared with processor 23 = 11
    Number of faces shared with processor 27 = 14
    Number of faces shared with processor 29 = 3
    Number of faces shared with processor 34 = 19
    Number of processor patches = 6
    Number of processor faces = 100
    Number of boundary faces = 666

Processor 29
    Number of cells = 333
    Number of faces shared with processor 23 = 30
    Number of faces shared with processor 28 = 3
    Number of faces shared with processor 34 = 9
    Number of faces shared with processor 35 = 26
    Number of processor patches = 4
    Number of processor faces = 68
    Number of boundary faces = 682

Processor 30
    Number of cells = 335
    Number of faces shared with processor 24 = 34
    Number of faces shared with processor 25 = 7
    Number of faces shared with processor 31 = 27
    Number of processor patches = 3
    Number of processor faces = 68
    Number of boundary faces = 704

Processor 31
    Number of cells = 335
    Number of faces shared with processor 25 = 20
    Number of faces shared with processor 26 = 9
    Number of faces shared with processor 30 = 27
    Number of faces shared with processor 32 = 27
    Number of processor patches = 4
    Number of processor faces = 83
    Number of boundary faces = 683

Processor 32
    Number of cells = 335
    Number of faces shared with processor 26 = 24
    Number of faces shared with processor 31 = 27
    Number of faces shared with processor 33 = 28
    Number of processor patches = 3
    Number of processor faces = 79
    Number of boundary faces = 683

Processor 33
    Number of cells = 335
    Number of faces shared with processor 26 = 10
    Number of faces shared with processor 27 = 24
    Number of faces shared with processor 32 = 28
    Number of faces shared with processor 34 = 20
    Number of processor patches = 4
    Number of processor faces = 82
    Number of boundary faces = 682

Processor 34
    Number of cells = 335
    Number of faces shared with processor 27 = 4
    Number of faces shared with processor 28 = 19
    Number of faces shared with processor 29 = 9
    Number of faces shared with processor 33 = 20
    Number of faces shared with processor 35 = 14
    Number of processor patches = 5
    Number of processor faces = 66
    Number of boundary faces = 686

Processor 35
    Number of cells = 335
    Number of faces shared with processor 29 = 26
    Number of faces shared with processor 34 = 14
    Number of processor patches = 2
    Number of processor faces = 40
    Number of boundary faces = 708

Number of processor faces = 1578
Max number of cells = 335 (0.5% above average 333.333)
Max number of processor patches = 7 (50% above average 4.66667)
Max number of faces between processors = 143 (63.1179% above average 87.6667)

Time = 0

Processor 0: field transfer
Processor 1: field transfer
Processor 2: field transfer
Processor 3: field transfer
Processor 4: field transfer
Processor 5: field transfer
Processor 6: field transfer
Processor 7: field transfer
Processor 8: field transfer
Processor 9: field transfer
Processor 10: field transfer
Processor 11: field transfer
Processor 12: field transfer
Processor 13: field transfer
Processor 14: field transfer
Processor 15: field transfer
Processor 16: field transfer
Processor 17: field transfer
Processor 18: field transfer
Processor 19: field transfer
Processor 20: field transfer
Processor 21: field transfer
Processor 22: field transfer
Processor 23: field transfer
Processor 24: field transfer
Processor 25: field transfer
Processor 26: field transfer
Processor 27: field transfer
Processor 28: field transfer
Processor 29: field transfer
Processor 30: field transfer
Processor 31: field transfer
Processor 32: field transfer
Processor 33: field transfer
Processor 34: field transfer
Processor 35: field transfer

End

