/*---------------------------------------------------------------------------*\
  =========                 |
  \\      /  F ield         | OpenFOAM: The Open Source CFD Toolbox
   \\    /   O peration     | Website:  https://openfoam.org
    \\  /    A nd           | Version:  7
     \\/     M anipulation  |
\*---------------------------------------------------------------------------*/
Build  : 7-49b2b3b8b082
Exec   : blockMesh
Date   : Apr 24 2022
Time   : 21:29:28
Host   : "c410-133.stampede2.tacc.utexas.edu"
PID    : 210728
I/O    : uncollated
Case   : /work2/07705/jmj3957/stampede2/COE347FinalProject/diamond_test
nProcs : 1
sigFpe : Enabling floating point exception trapping (FOAM_SIGFPE).
fileModificationChecking : Monitoring run-time modified files using timeStampMaster (fileModificationSkew 10)
allowSystemOperations : Allowing user-supplied system call operations

// * * * * * * * * * * * * * * * * * * * * * * * * * * * * * * * * * * * * * //
Create time

Creating block mesh from
    "/work2/07705/jmj3957/stampede2/COE347FinalProject/diamond_test/system/blockMeshDict"
Creating block edges
No non-planar block faces defined
Creating topology blocks
Creating topology patches

Creating block mesh topology
--> FOAM Warning : 
    From function Foam::polyMesh::polyMesh(const Foam::IOobject &, Foam::Field<Foam::Vector<double>> &&, const Foam::List<Foam::cellShape> &, const Foam::List<Foam::List<Foam::face>> &, const Foam::List<Foam::word> &, const Foam::PtrList<Foam::dictionary> &, const Foam::word &, const Foam::word &, bool)
    in file meshes/polyMesh/polyMeshFromShapeMesh.C at line 873
    Found 40 undefined faces in mesh; adding to default patch.

Check topology

	Basic statistics
		Number of internal faces : 28
		Number of boundary faces : 64
		Number of defined boundary faces : 64
		Number of undefined boundary faces : 0
	Checking patch -> block consistency

Creating block offsets
Creating merge list .

Creating polyMesh from blockMesh
Creating points with scale 1
    Block 0 cell size :
        i : 0.00865552 .. 0.017311 0.00880061 .. 0.0176012 0.00865552 .. 0.017311 0.00880061 .. 0.0176012 
        j : 0.0127475 0.0127281 .. 0.0130703 0.0127475 0.0127281 .. 0.0130703 
        k : 0.1
    Block 1 cell size :
        i : 0.00969882 .. 0.0193976 0.00964644 .. 0.0192929 0.00969882 .. 0.0193976 0.00964644 .. 0.0192929 
        j : 0.0127475 .. 0.0127475 0.0130672 .. 0.013069 0.0127475 .. 0.0127475 0.0130672 .. 0.013069 
        k : 0.1
    Block 2 cell size :
        i : 0.00865552 .. 0.017311 0.0087053 .. 0.0174106 0.00865552 .. 0.017311 0.0087053 .. 0.0174106 
        j : 0.0127475 .. 0.0127475 0.0130688 .. 0.0130671 0.0127475 .. 0.0127475 0.0130688 .. 0.0130671 
        k : 0.1
    Block 3 cell size :
        i : 0.00969803 .. 0.0193961 0.00978359 .. 0.0195672 0.00969803 .. 0.0193961 0.00978359 .. 0.0195672 
        j : 0.0127475 0.0130705 .. 0.0127282 0.0127475 0.0130705 .. 0.0127282 
        k : 0.1
    Block 4 cell size :
        i : 0.00865552 .. 0.017311 0.00880056 .. 0.0176011 0.00865552 .. 0.017311 0.00880056 .. 0.0176011 
        j : 0.0127475 0.0127282 .. 0.0130705 0.0127475 0.0127282 .. 0.0130705 
        k : 0.1
    Block 5 cell size :
        i : 0.00969803 .. 0.0193961 0.0096457 .. 0.0192914 0.00969803 .. 0.0193961 0.0096457 .. 0.0192914 
        j : 0.0127475 .. 0.0127475 0.0130671 .. 0.0130688 0.0127475 .. 0.0127475 0.0130671 .. 0.0130688 
        k : 0.1
    Block 6 cell size :
        i : 0.00865552 .. 0.017311 0.00870533 .. 0.0174107 0.00865552 .. 0.017311 0.00870533 .. 0.0174107 
        j : 0.0127475 .. 0.0127475 0.013069 .. 0.0130672 0.0127475 .. 0.0127475 0.013069 .. 0.0130672 
        k : 0.1
    Block 7 cell size :
        i : 0.00969882 .. 0.0193976 0.00978433 .. 0.0195687 0.00969882 .. 0.0193976 0.00978433 .. 0.0195687 
        j : 0.0127475 0.0130703 .. 0.0127281 0.0127475 0.0130703 .. 0.0127281 
        k : 0.1
    Block 8 cell size :
        i : 0.0865552 .. 0.17311 0.0866409 .. 0.173282 0.0865552 .. 0.17311 0.0866409 .. 0.173282 
        j : 0.0318369 .. 0.0318369 0.0316884 .. 0.0314348 0.0318369 .. 0.0318369 0.0316884 .. 0.0314348 
        k : 0.1
    Block 9 cell size :
        i : 0.0931353 .. 0.186271
        j : 0.0964293 .. 0.289288
        k : 0.1
    Block 10 cell size :
        i : 0.0964293 .. 0.289288 0.096081 .. 0.288243 0.0964293 .. 0.289288 0.096081 .. 0.288243 
        j : 0.0319082 .. 0.0319082 0.0318145 .. 0.0318832 0.0319082 .. 0.0319082 0.0318145 .. 0.0318832 
        k : 0.1
    Block 11 cell size :
        i : 0.0928994 .. 0.278698
        j : 0.0318992 .. 0.0318992 0.0318743 .. 0.0318056 0.0318992 .. 0.0318992 0.0318743 .. 0.0318056 
        k : 0.1
    Block 12 cell size :
        i : 0.0964271 .. 0.289281
        j : 0.132937 .. 0.664684
        k : 0.1
    Block 13 cell size :
        i : 0.132937 .. 0.664684 0.131769 .. 0.658846 0.132937 .. 0.664684 0.131769 .. 0.658846 
        j : 0.0318459 .. 0.0318459 0.0309387 .. 0.0315085 0.0318459 .. 0.0318459 0.0309387 .. 0.0315085 
        k : 0.1
    Block 14 cell size :
        i : 0.117982 .. 0.589909 0.118177 .. 0.590884 0.117982 .. 0.589909 0.118177 .. 0.590884 
        j : 0.0318459 .. 0.0318459 0.0315085 .. 0.0309387 0.0318459 .. 0.0318459 0.0315085 .. 0.0309387 
        k : 0.1
    Block 15 cell size :
        i : 0.132937 .. 0.664684
        j : 0.0964271 .. 0.289281
        k : 0.1
    Block 16 cell size :
        i : 0.0964271 .. 0.289281 0.0960791 .. 0.288237 0.0964271 .. 0.289281 0.0960791 .. 0.288237 
        j : 0.0318992 .. 0.0318992 0.0318056 .. 0.0318743 0.0318992 .. 0.0318992 0.0318056 .. 0.0318743 
        k : 0.1
    Block 17 cell size :
        i : 0.0928994 .. 0.278698
        j : 0.0319082 .. 0.0319082 0.0318832 .. 0.0318145 0.0319082 .. 0.0319082 0.0318832 .. 0.0318145 
        k : 0.1
    Block 18 cell size :
        i : 0.0964293 .. 0.289288
        j : 0.0931353 .. 0.186271
        k : 0.1
    Block 19 cell size :
        i : 0.0931353 .. 0.186271 0.0926214 .. 0.185243 0.0931353 .. 0.186271 0.0926214 .. 0.185243 
        j : 0.0318369 .. 0.0318369 0.0314348 .. 0.0316884 0.0318369 .. 0.0318369 0.0314348 .. 0.0316884 
        k : 0.1
Creating cells
Creating patches

There are no merge patch pairs edges

Writing polyMesh
----------------
Mesh Information
----------------
  boundingBox: (-4 -4 -0.05) (6 4 0.05)
  nPoints: 24500
  nCells: 12000
  nFaces: 48250
  nInternalFaces: 23750
----------------
Patches
----------------
  patch 0 (start: 23750 size: 80) name: inlet
  patch 1 (start: 23830 size: 80) name: outlet
  patch 2 (start: 23910 size: 160) name: airfoil
  patch 3 (start: 24070 size: 90) name: top
  patch 4 (start: 24160 size: 90) name: bottom
  patch 5 (start: 24250 size: 24000) name: defaultFaces

End

