/*---------------------------------------------------------------------------*\
  =========                 |
  \\      /  F ield         | OpenFOAM: The Open Source CFD Toolbox
   \\    /   O peration     | Website:  https://openfoam.org
    \\  /    A nd           | Version:  7
     \\/     M anipulation  |
\*---------------------------------------------------------------------------*/
Build  : 7-49b2b3b8b082
Exec   : decomposePar
Date   : Apr 24 2022
Time   : 21:06:10
Host   : "c401-052.stampede2.tacc.utexas.edu"
PID    : 247773
I/O    : uncollated
Case   : /work2/07705/jmj3957/stampede2/COE347FinalProject/diamond_test
nProcs : 1
sigFpe : Enabling floating point exception trapping (FOAM_SIGFPE).
fileModificationChecking : Monitoring run-time modified files using timeStampMaster (fileModificationSkew 10)
allowSystemOperations : Allowing user-supplied system call operations

// * * * * * * * * * * * * * * * * * * * * * * * * * * * * * * * * * * * * * //
Create time



Decomposing mesh region0

Create mesh

Calculating distribution of cells
 Foam::decompositionMethod::New 
{
    numberOfSubdomains 36;
    method          hierarchical;
    simpleCoeffs
    {
        n               ( 6 6 1 );
        delta           0.0002;
    }
    hierarchicalCoeffs
    {
        n               ( 6 6 1 );
        delta           0.0002;
        order           xyz;
    }
}

Selecting decompositionMethod hierarchical

Finished decomposition in 0.01 s

Calculating original mesh data

Distributing cells to processors

Distributing faces to processors

Distributing points to processors

Constructing processor meshes

Processor 0
    Number of cells = 333
    Number of faces shared with processor 1 = 20
    Number of faces shared with processor 6 = 53
    Number of processor patches = 2
    Number of processor faces = 73
    Number of boundary faces = 699

Processor 1
    Number of cells = 333
    Number of faces shared with processor 0 = 20
    Number of faces shared with processor 2 = 26
    Number of faces shared with processor 6 = 8
    Number of faces shared with processor 7 = 16
    Number of faces shared with processor 8 = 4
    Number of processor patches = 5
    Number of processor faces = 74
    Number of boundary faces = 678

Processor 2
    Number of cells = 333
    Number of faces shared with processor 1 = 26
    Number of faces shared with processor 3 = 26
    Number of faces shared with processor 8 = 20
    Number of processor patches = 3
    Number of processor faces = 72
    Number of boundary faces = 678

Processor 3
    Number of cells = 333
    Number of faces shared with processor 2 = 26
    Number of faces shared with processor 4 = 19
    Number of faces shared with processor 8 = 3
    Number of faces shared with processor 9 = 21
    Number of faces shared with processor 10 = 12
    Number of processor patches = 5
    Number of processor faces = 81
    Number of boundary faces = 679

Processor 4
    Number of cells = 333
    Number of faces shared with processor 3 = 19
    Number of faces shared with processor 5 = 14
    Number of faces shared with processor 10 = 44
    Number of faces shared with processor 11 = 5
    Number of processor patches = 4
    Number of processor faces = 82
    Number of boundary faces = 682

Processor 5
    Number of cells = 333
    Number of faces shared with processor 4 = 14
    Number of faces shared with processor 11 = 25
    Number of processor patches = 2
    Number of processor faces = 39
    Number of boundary faces = 703

Processor 6
    Number of cells = 333
    Number of faces shared with processor 0 = 53
    Number of faces shared with processor 1 = 8
    Number of faces shared with processor 7 = 26
    Number of faces shared with processor 12 = 45
    Number of processor patches = 4
    Number of processor faces = 132
    Number of boundary faces = 678

Processor 7
    Number of cells = 333
    Number of faces shared with processor 1 = 16
    Number of faces shared with processor 6 = 26
    Number of faces shared with processor 8 = 19
    Number of faces shared with processor 12 = 3
    Number of faces shared with processor 13 = 24
    Number of faces shared with processor 14 = 4
    Number of processor patches = 6
    Number of processor faces = 92
    Number of boundary faces = 666

Processor 8
    Number of cells = 333
    Number of faces shared with processor 1 = 4
    Number of faces shared with processor 2 = 20
    Number of faces shared with processor 3 = 3
    Number of faces shared with processor 7 = 19
    Number of faces shared with processor 9 = 20
    Number of faces shared with processor 14 = 28
    Number of processor patches = 6
    Number of processor faces = 94
    Number of boundary faces = 666

Processor 9
    Number of cells = 333
    Number of faces shared with processor 3 = 21
    Number of faces shared with processor 8 = 20
    Number of faces shared with processor 10 = 14
    Number of faces shared with processor 14 = 4
    Number of faces shared with processor 15 = 24
    Number of faces shared with processor 16 = 9
    Number of processor patches = 6
    Number of processor faces = 92
    Number of boundary faces = 666

Processor 10
    Number of cells = 333
    Number of faces shared with processor 3 = 12
    Number of faces shared with processor 4 = 44
    Number of faces shared with processor 9 = 14
    Number of faces shared with processor 11 = 14
    Number of faces shared with processor 16 = 39
    Number of faces shared with processor 17 = 3
    Number of processor patches = 6
    Number of processor faces = 126
    Number of boundary faces = 666

Processor 11
    Number of cells = 333
    Number of faces shared with processor 4 = 5
    Number of faces shared with processor 5 = 25
    Number of faces shared with processor 10 = 14
    Number of faces shared with processor 17 = 33
    Number of processor patches = 4
    Number of processor faces = 77
    Number of boundary faces = 677

Processor 12
    Number of cells = 333
    Number of faces shared with processor 6 = 45
    Number of faces shared with processor 7 = 3
    Number of faces shared with processor 13 = 21
    Number of faces shared with processor 18 = 47
    Number of processor patches = 4
    Number of processor faces = 116
    Number of boundary faces = 674

Processor 13
    Number of cells = 333
    Number of faces shared with processor 7 = 24
    Number of faces shared with processor 12 = 21
    Number of faces shared with processor 14 = 13
    Number of faces shared with processor 18 = 1
    Number of faces shared with processor 19 = 5
    Number of processor patches = 5
    Number of processor faces = 64
    Number of boundary faces = 694

Processor 14
    Number of cells = 333
    Number of faces shared with processor 7 = 4
    Number of faces shared with processor 8 = 28
    Number of faces shared with processor 9 = 4
    Number of faces shared with processor 13 = 13
    Number of faces shared with processor 15 = 16
    Number of faces shared with processor 20 = 2
    Number of processor patches = 6
    Number of processor faces = 67
    Number of boundary faces = 693

Processor 15
    Number of cells = 333
    Number of faces shared with processor 9 = 24
    Number of faces shared with processor 14 = 16
    Number of faces shared with processor 16 = 13
    Number of faces shared with processor 20 = 1
    Number of faces shared with processor 21 = 13
    Number of faces shared with processor 22 = 1
    Number of processor patches = 6
    Number of processor faces = 68
    Number of boundary faces = 688

Processor 16
    Number of cells = 333
    Number of faces shared with processor 9 = 9
    Number of faces shared with processor 10 = 39
    Number of faces shared with processor 15 = 13
    Number of faces shared with processor 17 = 8
    Number of faces shared with processor 22 = 43
    Number of processor patches = 5
    Number of processor faces = 112
    Number of boundary faces = 666

Processor 17
    Number of cells = 333
    Number of faces shared with processor 10 = 3
    Number of faces shared with processor 11 = 33
    Number of faces shared with processor 16 = 8
    Number of faces shared with processor 23 = 27
    Number of processor patches = 4
    Number of processor faces = 71
    Number of boundary faces = 681

Processor 18
    Number of cells = 333
    Number of faces shared with processor 12 = 47
    Number of faces shared with processor 13 = 1
    Number of faces shared with processor 19 = 22
    Number of faces shared with processor 24 = 45
    Number of faces shared with processor 25 = 3
    Number of processor patches = 5
    Number of processor faces = 118
    Number of boundary faces = 674

Processor 19
    Number of cells = 333
    Number of faces shared with processor 13 = 5
    Number of faces shared with processor 18 = 22
    Number of faces shared with processor 20 = 13
    Number of faces shared with processor 25 = 24
    Number of processor patches = 4
    Number of processor faces = 64
    Number of boundary faces = 696

Processor 20
    Number of cells = 333
    Number of faces shared with processor 14 = 2
    Number of faces shared with processor 15 = 1
    Number of faces shared with processor 19 = 13
    Number of faces shared with processor 21 = 17
    Number of faces shared with processor 25 = 4
    Number of faces shared with processor 26 = 28
    Number of faces shared with processor 27 = 4
    Number of processor patches = 7
    Number of processor faces = 69
    Number of boundary faces = 695

Processor 21
    Number of cells = 333
    Number of faces shared with processor 15 = 13
    Number of faces shared with processor 20 = 17
    Number of faces shared with processor 22 = 14
    Number of faces shared with processor 27 = 24
    Number of processor patches = 4
    Number of processor faces = 68
    Number of boundary faces = 690

Processor 22
    Number of cells = 333
    Number of faces shared with processor 15 = 1
    Number of faces shared with processor 16 = 43
    Number of faces shared with processor 21 = 14
    Number of faces shared with processor 23 = 8
    Number of faces shared with processor 27 = 9
    Number of faces shared with processor 28 = 39
    Number of processor patches = 6
    Number of processor faces = 114
    Number of boundary faces = 666

Processor 23
    Number of cells = 333
    Number of faces shared with processor 17 = 27
    Number of faces shared with processor 22 = 8
    Number of faces shared with processor 28 = 3
    Number of faces shared with processor 29 = 33
    Number of processor patches = 4
    Number of processor faces = 71
    Number of boundary faces = 683

Processor 24
    Number of cells = 333
    Number of faces shared with processor 18 = 45
    Number of faces shared with processor 25 = 26
    Number of faces shared with processor 30 = 51
    Number of faces shared with processor 31 = 8
    Number of processor patches = 4
    Number of processor faces = 130
    Number of boundary faces = 678

Processor 25
    Number of cells = 333
    Number of faces shared with processor 18 = 3
    Number of faces shared with processor 19 = 24
    Number of faces shared with processor 20 = 4
    Number of faces shared with processor 24 = 26
    Number of faces shared with processor 26 = 19
    Number of faces shared with processor 31 = 16
    Number of processor patches = 6
    Number of processor faces = 92
    Number of boundary faces = 666

Processor 26
    Number of cells = 333
    Number of faces shared with processor 20 = 28
    Number of faces shared with processor 25 = 19
    Number of faces shared with processor 27 = 20
    Number of faces shared with processor 31 = 3
    Number of faces shared with processor 32 = 19
    Number of faces shared with processor 33 = 3
    Number of processor patches = 6
    Number of processor faces = 92
    Number of boundary faces = 666

Processor 27
    Number of cells = 333
    Number of faces shared with processor 20 = 4
    Number of faces shared with processor 21 = 24
    Number of faces shared with processor 22 = 9
    Number of faces shared with processor 26 = 20
    Number of faces shared with processor 28 = 14
    Number of faces shared with processor 33 = 19
    Number of processor patches = 6
    Number of processor faces = 90
    Number of boundary faces = 666

Processor 28
    Number of cells = 333
    Number of faces shared with processor 22 = 39
    Number of faces shared with processor 23 = 3
    Number of faces shared with processor 27 = 14
    Number of faces shared with processor 29 = 14
    Number of faces shared with processor 33 = 12
    Number of faces shared with processor 34 = 46
    Number of processor patches = 6
    Number of processor faces = 128
    Number of boundary faces = 666

Processor 29
    Number of cells = 333
    Number of faces shared with processor 23 = 33
    Number of faces shared with processor 28 = 14
    Number of faces shared with processor 34 = 6
    Number of faces shared with processor 35 = 25
    Number of processor patches = 4
    Number of processor faces = 78
    Number of boundary faces = 676

Processor 30
    Number of cells = 335
    Number of faces shared with processor 24 = 51
    Number of faces shared with processor 31 = 20
    Number of processor patches = 2
    Number of processor faces = 71
    Number of boundary faces = 703

Processor 31
    Number of cells = 335
    Number of faces shared with processor 24 = 8
    Number of faces shared with processor 25 = 16
    Number of faces shared with processor 26 = 3
    Number of faces shared with processor 30 = 20
    Number of faces shared with processor 32 = 27
    Number of processor patches = 5
    Number of processor faces = 74
    Number of boundary faces = 682

Processor 32
    Number of cells = 335
    Number of faces shared with processor 26 = 19
    Number of faces shared with processor 31 = 27
    Number of faces shared with processor 33 = 26
    Number of processor patches = 3
    Number of processor faces = 72
    Number of boundary faces = 682

Processor 33
    Number of cells = 335
    Number of faces shared with processor 26 = 3
    Number of faces shared with processor 27 = 19
    Number of faces shared with processor 28 = 12
    Number of faces shared with processor 32 = 26
    Number of faces shared with processor 34 = 19
    Number of processor patches = 5
    Number of processor faces = 79
    Number of boundary faces = 683

Processor 34
    Number of cells = 335
    Number of faces shared with processor 28 = 46
    Number of faces shared with processor 29 = 6
    Number of faces shared with processor 33 = 19
    Number of faces shared with processor 35 = 13
    Number of processor patches = 4
    Number of processor faces = 84
    Number of boundary faces = 686

Processor 35
    Number of cells = 335
    Number of faces shared with processor 29 = 25
    Number of faces shared with processor 34 = 13
    Number of processor patches = 2
    Number of processor faces = 38
    Number of boundary faces = 708

Number of processor faces = 1532
Max number of cells = 335 (0.5% above average 333.333)
Max number of processor patches = 7 (51.8072% above average 4.61111)
Max number of faces between processors = 132 (55.0914% above average 85.1111)

Time = 0

Processor 0: field transfer
Processor 1: field transfer
Processor 2: field transfer
Processor 3: field transfer
Processor 4: field transfer
Processor 5: field transfer
Processor 6: field transfer
Processor 7: field transfer
Processor 8: field transfer
Processor 9: field transfer
Processor 10: field transfer
Processor 11: field transfer
Processor 12: field transfer
Processor 13: field transfer
Processor 14: field transfer
Processor 15: field transfer
Processor 16: field transfer
Processor 17: field transfer
Processor 18: field transfer
Processor 19: field transfer
Processor 20: field transfer
Processor 21: field transfer
Processor 22: field transfer
Processor 23: field transfer
Processor 24: field transfer
Processor 25: field transfer
Processor 26: field transfer
Processor 27: field transfer
Processor 28: field transfer
Processor 29: field transfer
Processor 30: field transfer
Processor 31: field transfer
Processor 32: field transfer
Processor 33: field transfer
Processor 34: field transfer
Processor 35: field transfer

End

