/*---------------------------------------------------------------------------*\
  =========                 |
  \\      /  F ield         | OpenFOAM: The Open Source CFD Toolbox
   \\    /   O peration     | Website:  https://openfoam.org
    \\  /    A nd           | Version:  7
     \\/     M anipulation  |
\*---------------------------------------------------------------------------*/
Build  : 7-49b2b3b8b082
Exec   : blockMesh
Date   : Apr 24 2022
Time   : 20:45:21
Host   : "c406-051.stampede2.tacc.utexas.edu"
PID    : 140667
I/O    : uncollated
Case   : /work2/07705/jmj3957/stampede2/COE347FinalProject/diamond_test
nProcs : 1
sigFpe : Enabling floating point exception trapping (FOAM_SIGFPE).
fileModificationChecking : Monitoring run-time modified files using timeStampMaster (fileModificationSkew 10)
allowSystemOperations : Allowing user-supplied system call operations

// * * * * * * * * * * * * * * * * * * * * * * * * * * * * * * * * * * * * * //
Create time

Deleting polyMesh directory
    "/work2/07705/jmj3957/stampede2/COE347FinalProject/diamond_test/constant/polyMesh"
Creating block mesh from
    "/work2/07705/jmj3957/stampede2/COE347FinalProject/diamond_test/system/blockMeshDict"
Creating block edges
No non-planar block faces defined
Creating topology blocks
Creating topology patches

Creating block mesh topology
--> FOAM Warning : 
    From function Foam::polyMesh::polyMesh(const Foam::IOobject &, Foam::Field<Foam::Vector<double>> &&, const Foam::List<Foam::cellShape> &, const Foam::List<Foam::List<Foam::face>> &, const Foam::List<Foam::word> &, const Foam::PtrList<Foam::dictionary> &, const Foam::word &, const Foam::word &, bool)
    in file meshes/polyMesh/polyMeshFromShapeMesh.C at line 873
    Found 40 undefined faces in mesh; adding to default patch.

Check topology

	Basic statistics
		Number of internal faces : 28
		Number of boundary faces : 64
		Number of defined boundary faces : 64
		Number of undefined boundary faces : 0
	Checking patch -> block consistency

Creating block offsets
Creating merge list .

Creating polyMesh from blockMesh
Creating points with scale 1
    Block 0 cell size :
        i : 0.00865563 .. 0.0173113 0.00828379 .. 0.0165676 0.00865563 .. 0.0173113 0.00828379 .. 0.0165676 
        j : 0.0127476 0.0131146 .. 0.0125866 0.0127476 0.0131146 .. 0.0125866 
        k : 0.1
    Block 1 cell size :
        i : 0.00969896 .. 0.0193979 0.00968248 .. 0.019365 0.00969896 .. 0.0193979 0.00968248 .. 0.019365 
        j : 0.0127473 .. 0.0127473 0.0130614 .. 0.0130637 0.0127473 .. 0.0127473 0.0130614 .. 0.0130637 
        k : 0.1
    Block 2 cell size :
        i : 0.00865544 .. 0.0173109 0.0082653 .. 0.0165306 0.00865544 .. 0.0173109 0.0082653 .. 0.0165306 
        j : 0.0127476 .. 0.0127476 0.0130067 .. 0.013012 0.0127476 .. 0.0127476 0.0130067 .. 0.013012 
        k : 0.1
    Block 3 cell size :
        i : 0.00969805 .. 0.0193961 0.0100444 .. 0.0200889 0.00969805 .. 0.0193961 0.0100444 .. 0.0200889 
        j : 0.0127473 0.0131316 .. 0.0124795 0.0127473 0.0131316 .. 0.0124795 
        k : 0.1
    Block 4 cell size :
        i : 0.00865563 .. 0.0173113 0.00828791 .. 0.0165758 0.00865563 .. 0.0173113 0.00828791 .. 0.0165758 
        j : 0.0127476 0.0131125 .. 0.0125967 0.0127476 0.0131125 .. 0.0125967 
        k : 0.1
    Block 5 cell size :
        i : 0.00969802 .. 0.019396 0.00929935 .. 0.0185987 0.00969802 .. 0.019396 0.00929935 .. 0.0185987 
        j : 0.0127473 .. 0.0127473 0.0130257 .. 0.013021 0.0127473 .. 0.0127473 0.0130257 .. 0.013021 
        k : 0.1
    Block 6 cell size :
        i : 0.00865544 .. 0.0173109 0.00830899 .. 0.016618 0.00865544 .. 0.0173109 0.00830899 .. 0.016618 
        j : 0.0127476 .. 0.0127476 0.0130244 .. 0.013029 0.0127476 .. 0.0127476 0.0130244 .. 0.013029 
        k : 0.1
    Block 7 cell size :
        i : 0.00969884 .. 0.0193977 0.0103142 .. 0.0206284 0.00969884 .. 0.0193977 0.0103142 .. 0.0206284 
        j : 0.0127473 0.0131267 .. 0.0121639 0.0127473 0.0131267 .. 0.0121639 
        k : 0.1
    Block 8 cell size :
        i : 0.0868702 .. 0.17374 0.0874487 .. 0.174897 0.0868702 .. 0.17374 0.0874487 .. 0.174897 
        j : 0.0341275 .. 0.0341275 0.0336467 .. 0.0339269 0.0341275 .. 0.0341275 0.0336467 .. 0.0339269 
        k : 0.1
    Block 9 cell size :
        i : 0.0919045 .. 0.183809 0.0919376 .. 0.183875 0.0919045 .. 0.183809 0.0919376 .. 0.183875 
        j : 0.0995854 .. 0.298756 0.0995304 .. 0.298591 0.0995854 .. 0.298756 0.0995304 .. 0.298591 
        k : 0.1
    Block 10 cell size :
        i : 0.0995854 .. 0.298756 0.0990552 .. 0.297165 0.0995854 .. 0.298756 0.0990552 .. 0.297165 
        j : 0.0321017 .. 0.0321017 0.031901 .. 0.0320668 0.0321017 .. 0.0321017 0.031901 .. 0.0320668 
        k : 0.1
    Block 11 cell size :
        i : 0.0931921 .. 0.279576 0.0937631 .. 0.281289 0.0931921 .. 0.279576 0.0937631 .. 0.281289 
        j : 0.0340545 .. 0.0340545 0.0337987 .. 0.0338286 0.0340545 .. 0.0340545 0.0337987 .. 0.0338286 
        k : 0.1
    Block 12 cell size :
        i : 0.0937153 .. 0.281146 0.0938207 .. 0.281462 0.0937153 .. 0.281146 0.0938207 .. 0.281462 
        j : 0.13658 .. 0.682899 0.136479 .. 0.682394 0.13658 .. 0.682899 0.136479 .. 0.682394 
        k : 0.1
    Block 13 cell size :
        i : 0.13658 .. 0.682899 0.135244 .. 0.67622 0.13658 .. 0.682899 0.135244 .. 0.67622 
        j : 0.03632 .. 0.03632 0.0346652 .. 0.0358107 0.03632 .. 0.03632 0.0346652 .. 0.0358107 
        k : 0.1
    Block 14 cell size :
        i : 0.118776 .. 0.593879 0.120088 .. 0.600438 0.118776 .. 0.593879 0.120088 .. 0.600438 
        j : 0.0339511 .. 0.0339511 0.0328883 .. 0.0335077 0.0339511 .. 0.0339511 0.0328883 .. 0.0335077 
        k : 0.1
    Block 15 cell size :
        i : 0.13017 .. 0.650849 0.130243 .. 0.651216 0.13017 .. 0.650849 0.130243 .. 0.651216 
        j : 0.0995826 .. 0.298748 0.0994578 .. 0.298373 0.0995826 .. 0.298748 0.0994578 .. 0.298373 
        k : 0.1
    Block 16 cell size :
        i : 0.0995826 .. 0.298748 0.0997416 .. 0.299225 0.0995826 .. 0.298748 0.0997416 .. 0.299225 
        j : 0.0335258 .. 0.0335258 0.0334437 .. 0.0331191 0.0335258 .. 0.0335258 0.0334437 .. 0.0331191 
        k : 0.1
    Block 17 cell size :
        i : 0.0931921 .. 0.279576 0.0936876 .. 0.281063 0.0931921 .. 0.279576 0.0936876 .. 0.281063 
        j : 0.0334255 .. 0.0334255 0.0332281 .. 0.0332544 0.0334255 .. 0.0334255 0.0332281 .. 0.0332544 
        k : 0.1
    Block 18 cell size :
        i : 0.0937167 .. 0.28115 0.0937631 .. 0.281289 0.0937167 .. 0.28115 0.0937631 .. 0.281289 
        j : 0.0947295 .. 0.189459 0.0946856 .. 0.189371 0.0947295 .. 0.189459 0.0946856 .. 0.189371 
        k : 0.1
    Block 19 cell size :
        i : 0.0947295 .. 0.189459 0.0941485 .. 0.188297 0.0947295 .. 0.189459 0.0941485 .. 0.188297 
        j : 0.0445785 .. 0.0445785 0.0435529 .. 0.0441569 0.0445785 .. 0.0445785 0.0435529 .. 0.0441569 
        k : 0.1
Creating cells
Creating patches

There are no merge patch pairs edges

Writing polyMesh
----------------
Mesh Information
----------------
  boundingBox: (-4 -4 -0.05) (6 4 0.05)
  nPoints: 24500
  nCells: 12000
  nFaces: 48250
  nInternalFaces: 23750
----------------
Patches
----------------
  patch 0 (start: 23750 size: 80) name: inlet
  patch 1 (start: 23830 size: 80) name: outlet
  patch 2 (start: 23910 size: 160) name: airfoil
  patch 3 (start: 24070 size: 90) name: top
  patch 4 (start: 24160 size: 90) name: bottom
  patch 5 (start: 24250 size: 24000) name: defaultFaces

End

