/*---------------------------------------------------------------------------*\
  =========                 |
  \\      /  F ield         | OpenFOAM: The Open Source CFD Toolbox
   \\    /   O peration     | Website:  https://openfoam.org
    \\  /    A nd           | Version:  7
     \\/     M anipulation  |
\*---------------------------------------------------------------------------*/
Build  : 7-49b2b3b8b082
Exec   : icoFoam -parallel
Date   : Apr 24 2022
Time   : 19:56:35
Host   : "c417-092.stampede2.tacc.utexas.edu"
PID    : 261581
I/O    : uncollated
Case   : /work2/07705/jmj3957/stampede2/COE347FinalProject/diamond_test
nProcs : 36
Slaves : 
35
(
"c417-092.stampede2.tacc.utexas.edu.261582"
"c417-092.stampede2.tacc.utexas.edu.261583"
"c417-092.stampede2.tacc.utexas.edu.261584"
"c417-092.stampede2.tacc.utexas.edu.261585"
"c417-092.stampede2.tacc.utexas.edu.261586"
"c417-092.stampede2.tacc.utexas.edu.261587"
"c417-092.stampede2.tacc.utexas.edu.261588"
"c417-092.stampede2.tacc.utexas.edu.261589"
"c417-092.stampede2.tacc.utexas.edu.261590"
"c417-092.stampede2.tacc.utexas.edu.261591"
"c417-092.stampede2.tacc.utexas.edu.261592"
"c417-092.stampede2.tacc.utexas.edu.261593"
"c417-092.stampede2.tacc.utexas.edu.261594"
"c417-092.stampede2.tacc.utexas.edu.261595"
"c417-092.stampede2.tacc.utexas.edu.261596"
"c417-092.stampede2.tacc.utexas.edu.261597"
"c417-092.stampede2.tacc.utexas.edu.261598"
"c417-092.stampede2.tacc.utexas.edu.261599"
"c417-092.stampede2.tacc.utexas.edu.261600"
"c417-092.stampede2.tacc.utexas.edu.261601"
"c417-092.stampede2.tacc.utexas.edu.261602"
"c417-092.stampede2.tacc.utexas.edu.261603"
"c417-092.stampede2.tacc.utexas.edu.261604"
"c417-092.stampede2.tacc.utexas.edu.261605"
"c417-092.stampede2.tacc.utexas.edu.261606"
"c417-092.stampede2.tacc.utexas.edu.261607"
"c417-092.stampede2.tacc.utexas.edu.261608"
"c417-092.stampede2.tacc.utexas.edu.261609"
"c417-092.stampede2.tacc.utexas.edu.261610"
"c417-092.stampede2.tacc.utexas.edu.261611"
"c417-092.stampede2.tacc.utexas.edu.261612"
"c417-092.stampede2.tacc.utexas.edu.261613"
"c417-092.stampede2.tacc.utexas.edu.261614"
"c417-092.stampede2.tacc.utexas.edu.261615"
"c417-092.stampede2.tacc.utexas.edu.261616"
)

Pstream initialized with:
    floatTransfer      : 0
    nProcsSimpleSum    : 0
    commsType          : nonBlocking
    polling iterations : 0
sigFpe : Enabling floating point exception trapping (FOAM_SIGFPE).
fileModificationChecking : Monitoring run-time modified files using timeStampMaster (fileModificationSkew 10)
allowSystemOperations : Allowing user-supplied system call operations

// * * * * * * * * * * * * * * * * * * * * * * * * * * * * * * * * * * * * * //
Create time

Create mesh for time = 0

Reading transportProperties

Reading field p

Reading field U

Reading/calculating face flux field phi


Starting time loop

--> FOAM Warning : 
    From function void Foam::probes::findElements(const Foam::fvMesh &)
    in file probes/probes.C at line 119
    Did not find location (0 0 0) in any cell. Skipping location.
Reading set description:
    line1
    line2
    line3
    line4

forces forces:
--> FOAM Warning : 
    From function Foam::HashSet<int, Foam::Hash<int>> Foam::polyBoundaryMesh::patchSet(const Foam::UList<Foam::wordRe> &, bool, bool) const
    in file meshes/polyMesh/polyBoundaryMesh/polyBoundaryMesh.C at line 804
    Cannot find any patch or group names matching cylinder
    Not including porosity effects
forces forceCoeffs:
--> FOAM Warning : 
    From function Foam::HashSet<int, Foam::Hash<int>> Foam::polyBoundaryMesh::patchSet(const Foam::UList<Foam::wordRe> &, bool, bool) const
    in file meshes/polyMesh/polyBoundaryMesh/polyBoundaryMesh.C at line 804
    Cannot find any patch or group names matching cylinder
    Not including porosity effects
forceCoeffs forceCoeffs:
--> FOAM Warning : 
    From function Foam::HashSet<int, Foam::Hash<int>> Foam::polyBoundaryMesh::patchSet(const Foam::UList<Foam::wordRe> &, bool, bool) const
    in file meshes/polyMesh/polyBoundaryMesh/polyBoundaryMesh.C at line 804
    Cannot find any patch or group names matching cylinder
    Not including porosity effects
Time = 0.0002

Courant Number mean: 0.00201225 max: 0.0493232
smoothSolver:  Solving for Ux, Initial residual = 1, Final residual = 5.53217e-08, No Iterations 11
smoothSolver:  Solving for Uy, Initial residual = 0, Final residual = 0, No Iterations 0
DICPCG:  Solving for p, Initial residual = 1, Final residual = 9.05215e-08, No Iterations 316
time step continuity errors : sum local = 9.09888e-14, global = 1.8165e-16, cumulative = 1.8165e-16
DICPCG:  Solving for p, Initial residual = 0.346138, Final residual = 9.24003e-08, No Iterations 306
time step continuity errors : sum local = 6.03365e-13, global = 6.88303e-15, cumulative = 7.06468e-15
ExecutionTime = 0.68 s  ClockTime = 1 s

forces forces write:
    sum of forces:
        pressure : (0 0 0)
        viscous  : (0 0 0)
        porous   : (0 0 0)
    sum of moments:
        pressure : (0 0 0)
        viscous  : (0 0 0)
        porous   : (0 0 0)

forceCoeffs forceCoeffs write:
    Cm    = 0
    Cd    = 0
    Cl    = 0
    Cl(f) = 0
    Cl(r) = 0

Time = 0.0004

Courant Number mean: 0.0020045 max: 0.102732
smoothSolver:  Solving for Ux, Initial residual = 0.23563, Final residual = 4.74916e-08, No Iterations 8
smoothSolver:  Solving for Uy, Initial residual = 0.191074, Final residual = 4.07227e-08, No Iterations 9
DICPCG:  Solving for p, Initial residual = 0.675274, Final residual = 9.39459e-08, No Iterations 299
time step continuity errors : sum local = 1.26774e-12, global = 1.0474e-14, cumulative = 1.75387e-14
DICPCG:  Solving for p, Initial residual = 0.878962, Final residual = 9.10256e-08, No Iterations 302
time step continuity errors : sum local = 1.85629e-12, global = -4.00684e-16, cumulative = 1.7138e-14
ExecutionTime = 0.76 s  ClockTime = 2 s

forces forces write:
    sum of forces:
        pressure : (0 0 0)
        viscous  : (0 0 0)
        porous   : (0 0 0)
    sum of moments:
        pressure : (0 0 0)
        viscous  : (0 0 0)
        porous   : (0 0 0)

forceCoeffs forceCoeffs write:
    Cm    = 0
    Cd    = 0
    Cl    = 0
    Cl(f) = 0
    Cl(r) = 0

Time = 0.0006

Courant Number mean: 0.00200921 max: 0.263218
smoothSolver:  Solving for Ux, Initial residual = 0.039316, Final residual = 6.71229e-08, No Iterations 10
smoothSolver:  Solving for Uy, Initial residual = 0.0947268, Final residual = 3.95454e-08, No Iterations 11
DICPCG:  Solving for p, Initial residual = 0.994734, Final residual = 9.61515e-08, No Iterations 307
time step continuity errors : sum local = 1.02523e-11, global = -3.49375e-14, cumulative = -1.77995e-14
DICPCG:  Solving for p, Initial residual = 0.992395, Final residual = 9.92879e-08, No Iterations 305
time step continuity errors : sum local = 2.67305e-11, global = 3.75308e-15, cumulative = -1.40464e-14
ExecutionTime = 0.83 s  ClockTime = 2 s

forces forces write:
    sum of forces:
        pressure : (0 0 0)
        viscous  : (0 0 0)
        porous   : (0 0 0)
    sum of moments:
        pressure : (0 0 0)
        viscous  : (0 0 0)
        porous   : (0 0 0)

forceCoeffs forceCoeffs write:
    Cm    = 0
    Cd    = 0
    Cl    = 0
    Cl(f) = 0
    Cl(r) = 0

Time = 0.0008

Courant Number mean: 0.0021298 max: 3.37086
smoothSolver:  Solving for Ux, Initial residual = 0.0183001, Final residual = 9.66988e-08, No Iterations 12
smoothSolver:  Solving for Uy, Initial residual = 0.229543, Final residual = 5.39871e-08, No Iterations 16
DICPCG:  Solving for p, Initial residual = 0.994583, Final residual = 9.65809e-08, No Iterations 307
time step continuity errors : sum local = 1.62989e-10, global = -1.7135e-13, cumulative = -1.85397e-13
DICPCG:  Solving for p, Initial residual = 0.990167, Final residual = 9.57594e-08, No Iterations 306
time step continuity errors : sum local = 4.19744e-10, global = -8.32279e-13, cumulative = -1.01768e-12
ExecutionTime = 0.9 s  ClockTime = 2 s

forces forces write:
    sum of forces:
        pressure : (0 0 0)
        viscous  : (0 0 0)
        porous   : (0 0 0)
    sum of moments:
        pressure : (0 0 0)
        viscous  : (0 0 0)
        porous   : (0 0 0)

forceCoeffs forceCoeffs write:
    Cm    = 0
    Cd    = 0
    Cl    = 0
    Cl(f) = 0
    Cl(r) = 0

Time = 0.001

Courant Number mean: 0.00418246 max: 81.324
[12] #0  [18] #0  Foam::error::printStack(Foam::Ostream&)Foam::error::printStack(Foam::Ostream&) at ??:?
 at ??:?
[12] #1  Foam::sigFpe::sigHandler(int)[18] #1  Foam::sigFpe::sigHandler(int) at ??:?
[18] #2  ? at ??:?
[12] #2  ? in "/lib64/libpthread.so.0"
[18] #3  Foam::symGaussSeidelSmoother::smooth(Foam::word const&, Foam::Field<double>&, Foam::lduMatrix const&, Foam::Field<double> const&, Foam::FieldField<Foam::Field, double> const&, Foam::UPtrList<Foam::lduInterfaceField const> const&, unsigned char, int) in "/lib64/libpthread.so.0"
[12] #3  Foam::symGaussSeidelSmoother::smooth(Foam::word const&, Foam::Field<double>&, Foam::lduMatrix const&, Foam::Field<double> const&, Foam::FieldField<Foam::Field, double> const&, Foam::UPtrList<Foam::lduInterfaceField const> const&, unsigned char, int) at ??:?
[18] #4  Foam::symGaussSeidelSmoother::smooth(Foam::Field<double>&, Foam::Field<double> const&, unsigned char, int) const at ??:?
[12] #4  Foam::symGaussSeidelSmoother::smooth(Foam::Field<double>&, Foam::Field<double> const&, unsigned char, int) const at ??:?
[18] #5  Foam::smoothSolver::solve(Foam::Field<double>&, Foam::Field<double> const&, unsigned char) const at ??:?
[12] #5  Foam::smoothSolver::solve(Foam::Field<double>&, Foam::Field<double> const&, unsigned char) const at ??:?
[18] #6   at ??:?
[12] #6  ?? at ??:?
[18] #7   at ??:?
[12] #7  ?? at ??:?
[18] #8   at ??:?
[12] #8  ?? at ??:?
[18] #9   at ??:?
[12] #9  ?? at ??:?
[18] #10  __libc_start_main at ??:?
[12] #10  __libc_start_main in "/lib64/libc.so.6"
[18] #11   in "/lib64/libc.so.6"
[12] #11  ?? at ??:?
 at ??:?

===================================================================================
=   BAD TERMINATION OF ONE OF YOUR APPLICATION PROCESSES
=   PID 261599 RUNNING AT c417-092
=   EXIT CODE: 8
=   CLEANING UP REMAINING PROCESSES
=   YOU CAN IGNORE THE BELOW CLEANUP MESSAGES
===================================================================================
   Intel(R) MPI Library troubleshooting guide:
      https://software.intel.com/node/561764
===================================================================================
