/*---------------------------------------------------------------------------*\
  =========                 |
  \\      /  F ield         | OpenFOAM: The Open Source CFD Toolbox
   \\    /   O peration     | Website:  https://openfoam.org
    \\  /    A nd           | Version:  7
     \\/     M anipulation  |
\*---------------------------------------------------------------------------*/
Build  : 7-49b2b3b8b082
Exec   : decomposePar
Date   : Apr 24 2022
Time   : 20:45:26
Host   : "c406-051.stampede2.tacc.utexas.edu"
PID    : 140811
I/O    : uncollated
Case   : /work2/07705/jmj3957/stampede2/COE347FinalProject/diamond_test
nProcs : 1
sigFpe : Enabling floating point exception trapping (FOAM_SIGFPE).
fileModificationChecking : Monitoring run-time modified files using timeStampMaster (fileModificationSkew 10)
allowSystemOperations : Allowing user-supplied system call operations

// * * * * * * * * * * * * * * * * * * * * * * * * * * * * * * * * * * * * * //
Create time



Decomposing mesh region0

Create mesh

Calculating distribution of cells
 Foam::decompositionMethod::New 
{
    numberOfSubdomains 36;
    method          hierarchical;
    simpleCoeffs
    {
        n               ( 6 6 1 );
        delta           0.0002;
    }
    hierarchicalCoeffs
    {
        n               ( 6 6 1 );
        delta           0.0002;
        order           xyz;
    }
}

Selecting decompositionMethod hierarchical

Finished decomposition in 0.01 s

Calculating original mesh data

Distributing cells to processors

Distributing faces to processors

Distributing points to processors

Constructing processor meshes

Processor 0
    Number of cells = 333
    Number of faces shared with processor 1 = 24
    Number of faces shared with processor 6 = 21
    Number of processor patches = 2
    Number of processor faces = 45
    Number of boundary faces = 705

Processor 1
    Number of cells = 333
    Number of faces shared with processor 0 = 24
    Number of faces shared with processor 2 = 30
    Number of faces shared with processor 6 = 2
    Number of faces shared with processor 7 = 21
    Number of faces shared with processor 8 = 7
    Number of processor patches = 5
    Number of processor faces = 84
    Number of boundary faces = 678

Processor 2
    Number of cells = 333
    Number of faces shared with processor 1 = 30
    Number of faces shared with processor 3 = 29
    Number of faces shared with processor 8 = 22
    Number of processor patches = 3
    Number of processor faces = 81
    Number of boundary faces = 677

Processor 3
    Number of cells = 333
    Number of faces shared with processor 2 = 29
    Number of faces shared with processor 4 = 21
    Number of faces shared with processor 8 = 2
    Number of faces shared with processor 9 = 22
    Number of faces shared with processor 10 = 21
    Number of processor patches = 5
    Number of processor faces = 95
    Number of boundary faces = 677

Processor 4
    Number of cells = 333
    Number of faces shared with processor 3 = 21
    Number of faces shared with processor 5 = 14
    Number of faces shared with processor 10 = 40
    Number of faces shared with processor 11 = 5
    Number of processor patches = 4
    Number of processor faces = 80
    Number of boundary faces = 684

Processor 5
    Number of cells = 333
    Number of faces shared with processor 4 = 14
    Number of faces shared with processor 11 = 25
    Number of processor patches = 2
    Number of processor faces = 39
    Number of boundary faces = 703

Processor 6
    Number of cells = 333
    Number of faces shared with processor 0 = 21
    Number of faces shared with processor 1 = 2
    Number of faces shared with processor 7 = 22
    Number of faces shared with processor 12 = 41
    Number of faces shared with processor 13 = 10
    Number of processor patches = 5
    Number of processor faces = 96
    Number of boundary faces = 680

Processor 7
    Number of cells = 333
    Number of faces shared with processor 1 = 21
    Number of faces shared with processor 6 = 22
    Number of faces shared with processor 8 = 12
    Number of faces shared with processor 13 = 33
    Number of faces shared with processor 14 = 12
    Number of processor patches = 5
    Number of processor faces = 100
    Number of boundary faces = 666

Processor 8
    Number of cells = 333
    Number of faces shared with processor 1 = 7
    Number of faces shared with processor 2 = 22
    Number of faces shared with processor 3 = 2
    Number of faces shared with processor 7 = 12
    Number of faces shared with processor 9 = 23
    Number of faces shared with processor 14 = 28
    Number of processor patches = 6
    Number of processor faces = 94
    Number of boundary faces = 666

Processor 9
    Number of cells = 333
    Number of faces shared with processor 3 = 22
    Number of faces shared with processor 8 = 23
    Number of faces shared with processor 10 = 3
    Number of faces shared with processor 14 = 6
    Number of faces shared with processor 15 = 24
    Number of faces shared with processor 16 = 18
    Number of processor patches = 6
    Number of processor faces = 96
    Number of boundary faces = 666

Processor 10
    Number of cells = 333
    Number of faces shared with processor 3 = 21
    Number of faces shared with processor 4 = 40
    Number of faces shared with processor 9 = 3
    Number of faces shared with processor 11 = 16
    Number of faces shared with processor 16 = 39
    Number of faces shared with processor 17 = 1
    Number of processor patches = 6
    Number of processor faces = 120
    Number of boundary faces = 666

Processor 11
    Number of cells = 333
    Number of faces shared with processor 4 = 5
    Number of faces shared with processor 5 = 25
    Number of faces shared with processor 10 = 16
    Number of faces shared with processor 17 = 37
    Number of processor patches = 4
    Number of processor faces = 83
    Number of boundary faces = 675

Processor 12
    Number of cells = 333
    Number of faces shared with processor 6 = 41
    Number of faces shared with processor 13 = 7
    Number of faces shared with processor 18 = 60
    Number of faces shared with processor 19 = 31
    Number of processor patches = 4
    Number of processor faces = 139
    Number of boundary faces = 671

Processor 13
    Number of cells = 333
    Number of faces shared with processor 6 = 10
    Number of faces shared with processor 7 = 33
    Number of faces shared with processor 12 = 7
    Number of faces shared with processor 14 = 5
    Number of faces shared with processor 19 = 16
    Number of faces shared with processor 20 = 4
    Number of processor patches = 6
    Number of processor faces = 75
    Number of boundary faces = 685

Processor 14
    Number of cells = 333
    Number of faces shared with processor 7 = 12
    Number of faces shared with processor 8 = 28
    Number of faces shared with processor 9 = 6
    Number of faces shared with processor 13 = 5
    Number of faces shared with processor 15 = 12
    Number of faces shared with processor 20 = 7
    Number of processor patches = 6
    Number of processor faces = 70
    Number of boundary faces = 690

Processor 15
    Number of cells = 333
    Number of faces shared with processor 9 = 24
    Number of faces shared with processor 14 = 12
    Number of faces shared with processor 16 = 3
    Number of faces shared with processor 21 = 22
    Number of faces shared with processor 22 = 26
    Number of processor patches = 5
    Number of processor faces = 87
    Number of boundary faces = 695

Processor 16
    Number of cells = 333
    Number of faces shared with processor 9 = 18
    Number of faces shared with processor 10 = 39
    Number of faces shared with processor 15 = 3
    Number of faces shared with processor 17 = 7
    Number of faces shared with processor 22 = 51
    Number of processor patches = 5
    Number of processor faces = 118
    Number of boundary faces = 666

Processor 17
    Number of cells = 333
    Number of faces shared with processor 10 = 1
    Number of faces shared with processor 11 = 37
    Number of faces shared with processor 16 = 7
    Number of faces shared with processor 22 = 4
    Number of faces shared with processor 23 = 32
    Number of processor patches = 5
    Number of processor faces = 81
    Number of boundary faces = 681

Processor 18
    Number of cells = 333
    Number of faces shared with processor 12 = 60
    Number of faces shared with processor 19 = 12
    Number of faces shared with processor 24 = 51
    Number of faces shared with processor 25 = 9
    Number of processor patches = 4
    Number of processor faces = 132
    Number of boundary faces = 672

Processor 19
    Number of cells = 333
    Number of faces shared with processor 12 = 31
    Number of faces shared with processor 13 = 16
    Number of faces shared with processor 18 = 12
    Number of faces shared with processor 20 = 14
    Number of faces shared with processor 25 = 26
    Number of processor patches = 5
    Number of processor faces = 99
    Number of boundary faces = 705

Processor 20
    Number of cells = 333
    Number of faces shared with processor 13 = 4
    Number of faces shared with processor 14 = 7
    Number of faces shared with processor 19 = 14
    Number of faces shared with processor 21 = 10
    Number of faces shared with processor 25 = 2
    Number of faces shared with processor 26 = 27
    Number of faces shared with processor 27 = 12
    Number of processor patches = 7
    Number of processor faces = 76
    Number of boundary faces = 700

Processor 21
    Number of cells = 333
    Number of faces shared with processor 15 = 22
    Number of faces shared with processor 20 = 10
    Number of faces shared with processor 22 = 9
    Number of faces shared with processor 27 = 35
    Number of faces shared with processor 28 = 7
    Number of processor patches = 5
    Number of processor faces = 83
    Number of boundary faces = 681

Processor 22
    Number of cells = 333
    Number of faces shared with processor 15 = 26
    Number of faces shared with processor 16 = 51
    Number of faces shared with processor 17 = 4
    Number of faces shared with processor 21 = 9
    Number of faces shared with processor 23 = 5
    Number of faces shared with processor 28 = 31
    Number of processor patches = 6
    Number of processor faces = 126
    Number of boundary faces = 666

Processor 23
    Number of cells = 333
    Number of faces shared with processor 17 = 32
    Number of faces shared with processor 22 = 5
    Number of faces shared with processor 28 = 8
    Number of faces shared with processor 29 = 30
    Number of processor patches = 4
    Number of processor faces = 75
    Number of boundary faces = 679

Processor 24
    Number of cells = 333
    Number of faces shared with processor 18 = 51
    Number of faces shared with processor 25 = 13
    Number of faces shared with processor 30 = 34
    Number of faces shared with processor 31 = 12
    Number of processor patches = 4
    Number of processor faces = 110
    Number of boundary faces = 676

Processor 25
    Number of cells = 333
    Number of faces shared with processor 18 = 9
    Number of faces shared with processor 19 = 26
    Number of faces shared with processor 20 = 2
    Number of faces shared with processor 24 = 13
    Number of faces shared with processor 26 = 19
    Number of faces shared with processor 31 = 21
    Number of processor patches = 6
    Number of processor faces = 90
    Number of boundary faces = 666

Processor 26
    Number of cells = 333
    Number of faces shared with processor 20 = 27
    Number of faces shared with processor 25 = 19
    Number of faces shared with processor 27 = 17
    Number of faces shared with processor 31 = 5
    Number of faces shared with processor 32 = 20
    Number of faces shared with processor 33 = 4
    Number of processor patches = 6
    Number of processor faces = 92
    Number of boundary faces = 666

Processor 27
    Number of cells = 333
    Number of faces shared with processor 20 = 12
    Number of faces shared with processor 21 = 35
    Number of faces shared with processor 26 = 17
    Number of faces shared with processor 28 = 15
    Number of faces shared with processor 33 = 19
    Number of processor patches = 5
    Number of processor faces = 98
    Number of boundary faces = 666

Processor 28
    Number of cells = 333
    Number of faces shared with processor 21 = 7
    Number of faces shared with processor 22 = 31
    Number of faces shared with processor 23 = 8
    Number of faces shared with processor 27 = 15
    Number of faces shared with processor 29 = 6
    Number of faces shared with processor 33 = 8
    Number of faces shared with processor 34 = 21
    Number of processor patches = 7
    Number of processor faces = 96
    Number of boundary faces = 666

Processor 29
    Number of cells = 333
    Number of faces shared with processor 23 = 30
    Number of faces shared with processor 28 = 6
    Number of faces shared with processor 34 = 6
    Number of faces shared with processor 35 = 26
    Number of processor patches = 4
    Number of processor faces = 68
    Number of boundary faces = 682

Processor 30
    Number of cells = 335
    Number of faces shared with processor 24 = 34
    Number of faces shared with processor 31 = 28
    Number of processor patches = 2
    Number of processor faces = 62
    Number of boundary faces = 704

Processor 31
    Number of cells = 335
    Number of faces shared with processor 24 = 12
    Number of faces shared with processor 25 = 21
    Number of faces shared with processor 26 = 5
    Number of faces shared with processor 30 = 28
    Number of faces shared with processor 32 = 27
    Number of processor patches = 5
    Number of processor faces = 93
    Number of boundary faces = 681

Processor 32
    Number of cells = 335
    Number of faces shared with processor 26 = 20
    Number of faces shared with processor 31 = 27
    Number of faces shared with processor 33 = 33
    Number of processor patches = 3
    Number of processor faces = 80
    Number of boundary faces = 682

Processor 33
    Number of cells = 335
    Number of faces shared with processor 26 = 4
    Number of faces shared with processor 27 = 19
    Number of faces shared with processor 28 = 8
    Number of faces shared with processor 32 = 33
    Number of faces shared with processor 34 = 21
    Number of processor patches = 5
    Number of processor faces = 85
    Number of boundary faces = 681

Processor 34
    Number of cells = 335
    Number of faces shared with processor 28 = 21
    Number of faces shared with processor 29 = 6
    Number of faces shared with processor 33 = 21
    Number of faces shared with processor 35 = 14
    Number of processor patches = 4
    Number of processor faces = 62
    Number of boundary faces = 688

Processor 35
    Number of cells = 335
    Number of faces shared with processor 29 = 26
    Number of faces shared with processor 34 = 14
    Number of processor patches = 2
    Number of processor faces = 40
    Number of boundary faces = 708

Number of processor faces = 1575
Max number of cells = 335 (0.5% above average 333.333)
Max number of processor patches = 7 (50% above average 4.66667)
Max number of faces between processors = 139 (58.8571% above average 87.5)

Time = 0

Processor 0: field transfer
Processor 1: field transfer
Processor 2: field transfer
Processor 3: field transfer
Processor 4: field transfer
Processor 5: field transfer
Processor 6: field transfer
Processor 7: field transfer
Processor 8: field transfer
Processor 9: field transfer
Processor 10: field transfer
Processor 11: field transfer
Processor 12: field transfer
Processor 13: field transfer
Processor 14: field transfer
Processor 15: field transfer
Processor 16: field transfer
Processor 17: field transfer
Processor 18: field transfer
Processor 19: field transfer
Processor 20: field transfer
Processor 21: field transfer
Processor 22: field transfer
Processor 23: field transfer
Processor 24: field transfer
Processor 25: field transfer
Processor 26: field transfer
Processor 27: field transfer
Processor 28: field transfer
Processor 29: field transfer
Processor 30: field transfer
Processor 31: field transfer
Processor 32: field transfer
Processor 33: field transfer
Processor 34: field transfer
Processor 35: field transfer

End

