/*---------------------------------------------------------------------------*\
  =========                 |
  \\      /  F ield         | OpenFOAM: The Open Source CFD Toolbox
   \\    /   O peration     | Website:  https://openfoam.org
    \\  /    A nd           | Version:  7
     \\/     M anipulation  |
\*---------------------------------------------------------------------------*/
Build  : 7-49b2b3b8b082
Exec   : blockMesh
Date   : Apr 24 2022
Time   : 20:25:14
Host   : "c416-074.stampede2.tacc.utexas.edu"
PID    : 90807
I/O    : uncollated
Case   : /work2/07705/jmj3957/stampede2/COE347FinalProject/diamond_test
nProcs : 1
sigFpe : Enabling floating point exception trapping (FOAM_SIGFPE).
fileModificationChecking : Monitoring run-time modified files using timeStampMaster (fileModificationSkew 10)
allowSystemOperations : Allowing user-supplied system call operations

// * * * * * * * * * * * * * * * * * * * * * * * * * * * * * * * * * * * * * //
Create time

Deleting polyMesh directory
    "/work2/07705/jmj3957/stampede2/COE347FinalProject/diamond_test/constant/polyMesh"
Creating block mesh from
    "/work2/07705/jmj3957/stampede2/COE347FinalProject/diamond_test/system/blockMeshDict"
No non-linear block edges defined
No non-planar block faces defined
Creating topology blocks
Creating topology patches

Creating block mesh topology
--> FOAM Warning : 
    From function Foam::polyMesh::polyMesh(const Foam::IOobject &, Foam::Field<Foam::Vector<double>> &&, const Foam::List<Foam::cellShape> &, const Foam::List<Foam::List<Foam::face>> &, const Foam::List<Foam::word> &, const Foam::PtrList<Foam::dictionary> &, const Foam::word &, const Foam::word &, bool)
    in file meshes/polyMesh/polyMeshFromShapeMesh.C at line 873
    Found 40 undefined faces in mesh; adding to default patch.

Check topology

	Basic statistics
		Number of internal faces : 28
		Number of boundary faces : 64
		Number of defined boundary faces : 64
		Number of undefined boundary faces : 0
	Checking patch -> block consistency

Creating block offsets
Creating merge list .

Creating polyMesh from blockMesh
Creating points with scale 1
    Block 0 cell size :
        i : 0.00865563 .. 0.0173113 0.00855078 .. 0.0171016 0.00865563 .. 0.0173113 0.00855078 .. 0.0171016 
        j : 0.0127476 0.0129338 .. 0.0129338 0.0127476 0.0129338 .. 0.0129338 
        k : 0.1
    Block 1 cell size :
        i : 0.00969896 .. 0.0193979 0.00954334 .. 0.0190867 0.00969896 .. 0.0193979 0.00954334 .. 0.0190867 
        j : 0.0127473 .. 0.0127473 0.0130747 .. 0.0130747 0.0127473 .. 0.0127473 0.0130747 .. 0.0130747 
        k : 0.1
    Block 2 cell size :
        i : 0.00865544 .. 0.0173109 0.00859293 .. 0.0171859 0.00865544 .. 0.0173109 0.00859293 .. 0.0171859 
        j : 0.0127476 .. 0.0127476 0.0130748 .. 0.0130748 0.0127476 .. 0.0127476 0.0130748 .. 0.0130748 
        k : 0.1
    Block 3 cell size :
        i : 0.00969805 .. 0.0193961 0.00950434 .. 0.0190087 0.00969805 .. 0.0193961 0.00950434 .. 0.0190087 
        j : 0.0127473 0.0129337 .. 0.0129337 0.0127473 0.0129337 .. 0.0129337 
        k : 0.1
    Block 4 cell size :
        i : 0.00865563 .. 0.0173113 0.00855064 .. 0.0171013 0.00865563 .. 0.0173113 0.00855064 .. 0.0171013 
        j : 0.0127476 0.0129339 .. 0.0129339 0.0127476 0.0129339 .. 0.0129339 
        k : 0.1
    Block 5 cell size :
        i : 0.00969802 .. 0.019396 0.00954253 .. 0.0190851 0.00969802 .. 0.019396 0.00954253 .. 0.0190851 
        j : 0.0127473 .. 0.0127473 0.0130746 .. 0.0130746 0.0127473 .. 0.0127473 0.0130746 .. 0.0130746 
        k : 0.1
    Block 6 cell size :
        i : 0.00865544 .. 0.0173109 0.00859287 .. 0.0171857 0.00865544 .. 0.0173109 0.00859287 .. 0.0171857 
        j : 0.0127476 .. 0.0127476 0.013075 .. 0.013075 0.0127476 .. 0.0127476 0.013075 .. 0.013075 
        k : 0.1
    Block 7 cell size :
        i : 0.00969884 .. 0.0193977 0.00950518 .. 0.0190104 0.00969884 .. 0.0193977 0.00950518 .. 0.0190104 
        j : 0.0127473 0.0129335 .. 0.0129335 0.0127473 0.0129335 
        k : 0.1
    Block 8 cell size :
        i : 0.0868702 .. 0.17374 0.0871216 .. 0.174243 0.0868702 .. 0.17374 0.0871216 .. 0.174243 
        j : 0.0302553 .. 0.0302553 0.0300889 .. 0.0300889 0.0302553 .. 0.0302553 0.0300889 .. 0.0300889 
        k : 0.1
    Block 9 cell size :
        i : 0.0919045 .. 0.183809 0.0919376 .. 0.183875 0.0919045 .. 0.183809 0.0919376 .. 0.183875 
        j : 0.0995854 .. 0.298756 0.0995304 .. 0.298591 0.0995854 .. 0.298756 0.0995304 .. 0.298591 
        k : 0.1
    Block 10 cell size :
        i : 0.0995854 .. 0.298756 0.0992655 .. 0.297796 0.0995854 .. 0.298756 0.0992655 .. 0.297796 
        j : 0.0316603 .. 0.0316603 0.0315833 .. 0.0315833 0.0316603 .. 0.0316603 0.0315833 .. 0.0315833 
        k : 0.1
    Block 11 cell size :
        i : 0.0931921 .. 0.279576 0.0932182 .. 0.279655 0.0931921 .. 0.279576 0.0932182 .. 0.279655 
        j : 0.0316521 .. 0.0316521 0.0316335 .. 0.0316335 0.0316521 .. 0.0316521 0.0316335 .. 0.0316335 
        k : 0.1
    Block 12 cell size :
        i : 0.0937153 .. 0.281146 0.0938207 .. 0.281462 0.0937153 .. 0.281146 0.0938207 .. 0.281462 
        j : 0.13658 .. 0.682899 0.136479 .. 0.682394 0.13658 .. 0.682899 0.136479 .. 0.682394 
        k : 0.1
    Block 13 cell size :
        i : 0.13658 .. 0.682899 0.135687 .. 0.678437 0.13658 .. 0.682899 0.135687 .. 0.678437 
        j : 0.030263 .. 0.030263 0.0296894 .. 0.0296894 0.030263 .. 0.030263 0.0296894 .. 0.0296894 
        k : 0.1
    Block 14 cell size :
        i : 0.118776 .. 0.593879 0.119344 .. 0.596719 0.118776 .. 0.593879 0.119344 .. 0.596719 
        j : 0.0302633 .. 0.0302633 0.0298869 .. 0.0298869 0.0302633 .. 0.0302633 0.0298869 .. 0.0298869 
        k : 0.1
    Block 15 cell size :
        i : 0.13017 .. 0.650849 0.130243 .. 0.651216 0.13017 .. 0.650849 0.130243 .. 0.651216 
        j : 0.0995826 .. 0.298748 0.0994578 .. 0.298373 0.0995826 .. 0.298748 0.0994578 .. 0.298373 
        k : 0.1
    Block 16 cell size :
        i : 0.0995826 .. 0.298748 0.0992629 .. 0.297789 0.0995826 .. 0.298748 0.0992629 .. 0.297789 
        j : 0.0316515 .. 0.0316515 0.0315745 .. 0.0315745 0.0316515 .. 0.0316515 0.0315745 .. 0.0315745 
        k : 0.1
    Block 17 cell size :
        i : 0.0931921 .. 0.279576 0.0932183 .. 0.279655 0.0931921 .. 0.279576 0.0932183 .. 0.279655 
        j : 0.0316606 .. 0.0316606 0.031642 .. 0.031642 0.0316606 .. 0.0316606 0.031642 .. 0.031642 
        k : 0.1
    Block 18 cell size :
        i : 0.0937167 .. 0.28115 0.0937631 .. 0.281289 0.0937167 .. 0.28115 0.0937631 .. 0.281289 
        j : 0.0947295 .. 0.189459 0.0946856 .. 0.189371 0.0947295 .. 0.189459 0.0946856 .. 0.189371 
        k : 0.1
    Block 19 cell size :
        i : 0.0947295 .. 0.189459 0.094336 .. 0.188672 0.0947295 .. 0.189459 0.094336 .. 0.188672 
        j : 0.0302549 .. 0.0302549 0.0300005 .. 0.0300005 0.0302549 .. 0.0302549 0.0300005 
        k : 0.1
Creating cells
Creating patches

There are no merge patch pairs edges

Writing polyMesh
----------------
Mesh Information
----------------
  boundingBox: (-4 -4 -0.05) (6 4 0.05)
  nPoints: 24500
  nCells: 12000
  nFaces: 48250
  nInternalFaces: 23750
----------------
Patches
----------------
  patch 0 (start: 23750 size: 80) name: inlet
  patch 1 (start: 23830 size: 80) name: outlet
  patch 2 (start: 23910 size: 160) name: airfoil
  patch 3 (start: 24070 size: 90) name: top
  patch 4 (start: 24160 size: 90) name: bottom
  patch 5 (start: 24250 size: 24000) name: defaultFaces

End

