/*---------------------------------------------------------------------------*\
  =========                 |
  \\      /  F ield         | OpenFOAM: The Open Source CFD Toolbox
   \\    /   O peration     | Website:  https://openfoam.org
    \\  /    A nd           | Version:  7
     \\/     M anipulation  |
\*---------------------------------------------------------------------------*/
Build  : 7-49b2b3b8b082
Exec   : icoFoam -parallel
Date   : Apr 24 2022
Time   : 20:45:49
Host   : "c406-051.stampede2.tacc.utexas.edu"
PID    : 145717
I/O    : uncollated
Case   : /work2/07705/jmj3957/stampede2/COE347FinalProject/diamond_test
nProcs : 36
Slaves : 
35
(
"c406-051.stampede2.tacc.utexas.edu.145718"
"c406-051.stampede2.tacc.utexas.edu.145719"
"c406-051.stampede2.tacc.utexas.edu.145720"
"c406-051.stampede2.tacc.utexas.edu.145721"
"c406-051.stampede2.tacc.utexas.edu.145722"
"c406-051.stampede2.tacc.utexas.edu.145723"
"c406-051.stampede2.tacc.utexas.edu.145724"
"c406-051.stampede2.tacc.utexas.edu.145725"
"c406-051.stampede2.tacc.utexas.edu.145726"
"c406-051.stampede2.tacc.utexas.edu.145727"
"c406-051.stampede2.tacc.utexas.edu.145728"
"c406-051.stampede2.tacc.utexas.edu.145729"
"c406-051.stampede2.tacc.utexas.edu.145730"
"c406-051.stampede2.tacc.utexas.edu.145731"
"c406-051.stampede2.tacc.utexas.edu.145732"
"c406-051.stampede2.tacc.utexas.edu.145733"
"c406-051.stampede2.tacc.utexas.edu.145734"
"c406-051.stampede2.tacc.utexas.edu.145735"
"c406-051.stampede2.tacc.utexas.edu.145736"
"c406-051.stampede2.tacc.utexas.edu.145737"
"c406-051.stampede2.tacc.utexas.edu.145738"
"c406-051.stampede2.tacc.utexas.edu.145739"
"c406-051.stampede2.tacc.utexas.edu.145740"
"c406-051.stampede2.tacc.utexas.edu.145741"
"c406-051.stampede2.tacc.utexas.edu.145742"
"c406-051.stampede2.tacc.utexas.edu.145743"
"c406-051.stampede2.tacc.utexas.edu.145744"
"c406-051.stampede2.tacc.utexas.edu.145745"
"c406-051.stampede2.tacc.utexas.edu.145746"
"c406-051.stampede2.tacc.utexas.edu.145747"
"c406-051.stampede2.tacc.utexas.edu.145748"
"c406-051.stampede2.tacc.utexas.edu.145749"
"c406-051.stampede2.tacc.utexas.edu.145750"
"c406-051.stampede2.tacc.utexas.edu.145751"
"c406-051.stampede2.tacc.utexas.edu.145752"
)

Pstream initialized with:
    floatTransfer      : 0
    nProcsSimpleSum    : 0
    commsType          : nonBlocking
    polling iterations : 0
sigFpe : Enabling floating point exception trapping (FOAM_SIGFPE).
fileModificationChecking : Monitoring run-time modified files using timeStampMaster (fileModificationSkew 10)
allowSystemOperations : Allowing user-supplied system call operations

// * * * * * * * * * * * * * * * * * * * * * * * * * * * * * * * * * * * * * //
Create time

Create mesh for time = 0

Reading transportProperties

Reading field p

Reading field U

Reading/calculating face flux field phi


Starting time loop

--> FOAM Warning : 
    From function void Foam::probes::findElements(const Foam::fvMesh &)
    in file probes/probes.C at line 119
    Did not find location (0 0 0) in any cell. Skipping location.
Reading set description:
    line1
    line2
    line3
    line4

forces forces:
--> FOAM Warning : 
    From function Foam::HashSet<int, Foam::Hash<int>> Foam::polyBoundaryMesh::patchSet(const Foam::UList<Foam::wordRe> &, bool, bool) const
    in file meshes/polyMesh/polyBoundaryMesh/polyBoundaryMesh.C at line 804
    Cannot find any patch or group names matching cylinder
    Not including porosity effects
forces forceCoeffs:
--> FOAM Warning : 
    From function Foam::HashSet<int, Foam::Hash<int>> Foam::polyBoundaryMesh::patchSet(const Foam::UList<Foam::wordRe> &, bool, bool) const
    in file meshes/polyMesh/polyBoundaryMesh/polyBoundaryMesh.C at line 804
    Cannot find any patch or group names matching cylinder
    Not including porosity effects
forceCoeffs forceCoeffs:
--> FOAM Warning : 
    From function Foam::HashSet<int, Foam::Hash<int>> Foam::polyBoundaryMesh::patchSet(const Foam::UList<Foam::wordRe> &, bool, bool) const
    in file meshes/polyMesh/polyBoundaryMesh/polyBoundaryMesh.C at line 804
    Cannot find any patch or group names matching cylinder
    Not including porosity effects
Time = 0.0002

Courant Number mean: 0.00207706 max: 0.19876
smoothSolver:  Solving for Ux, Initial residual = 1, Final residual = 8.72047e-08, No Iterations 11
smoothSolver:  Solving for Uy, Initial residual = 0, Final residual = 0, No Iterations 0
DICPCG:  Solving for p, Initial residual = 1, Final residual = 9.83566e-08, No Iterations 318
time step continuity errors : sum local = 9.50175e-14, global = -8.53367e-16, cumulative = -8.53367e-16
DICPCG:  Solving for p, Initial residual = 0.762141, Final residual = 9.95092e-08, No Iterations 305
time step continuity errors : sum local = 1.76092e-12, global = 1.49281e-14, cumulative = 1.40747e-14
ExecutionTime = 0.78 s  ClockTime = 2 s

forces forces write:
    sum of forces:
        pressure : (0 0 0)
        viscous  : (0 0 0)
        porous   : (0 0 0)
    sum of moments:
        pressure : (0 0 0)
        viscous  : (0 0 0)
        porous   : (0 0 0)

forceCoeffs forceCoeffs write:
    Cm    = 0
    Cd    = 0
    Cl    = 0
    Cl(f) = 0
    Cl(r) = 0

Time = 0.0004

Courant Number mean: 0.0020921 max: 0.618223
smoothSolver:  Solving for Ux, Initial residual = 0.252052, Final residual = 7.30163e+96, No Iterations 1000
smoothSolver:  Solving for Uy, Initial residual = 0.151473, Final residual = 1.03911e+98, No Iterations 1000
DICPCG:  Solving for p, Initial residual = 1, Final residual = 9.7385e-08, No Iterations 325
time step continuity errors : sum local = 1.63685e+89, global = -5.64361e+86, cumulative = -5.64361e+86
DICPCG:  Solving for p, Initial residual = 0.961528, Final residual = 9.09211e-08, No Iterations 329
time step continuity errors : sum local = 1.17098e+91, global = -2.7165e+88, cumulative = -2.77294e+88
ExecutionTime = 1.13 s  ClockTime = 2 s

forces forces write:
    sum of forces:
        pressure : (0 0 0)
        viscous  : (0 0 0)
        porous   : (0 0 0)
    sum of moments:
        pressure : (0 0 0)
        viscous  : (0 0 0)
        porous   : (0 0 0)

forceCoeffs forceCoeffs write:
    Cm    = 0
    Cd    = 0
    Cl    = 0
    Cl(f) = 0
    Cl(r) = 0

Time = 0.0006

Courant Number mean: 1.94064e+99 max: 2.53245e+103
[3] #0  [5] #0  Foam::error::printStack(Foam::Ostream&)[19] #0  Foam::error::printStack(Foam::Ostream&)[20] #0  Foam::error::printStack(Foam::Ostream&)[24] #0  Foam::error::printStack(Foam::Ostream&)[28] #0  Foam::error::printStack(Foam::Ostream&)[32] #0  Foam::error::printStack(Foam::Ostream&)[1] #0  Foam::error::printStack(Foam::Ostream&)Foam::error::printStack(Foam::Ostream&)[4] #0  Foam::error::printStack(Foam::Ostream&)[8] #0  Foam::error::printStack(Foam::Ostream&)[14] #0  Foam::error::printStack(Foam::Ostream&)[16] #0  Foam::error::printStack(Foam::Ostream&)[18] #0  Foam::error::printStack(Foam::Ostream&)[26] #0  Foam::error::printStack(Foam::Ostream&)[29] #0  Foam::error::printStack(Foam::Ostream&)[31] #0  Foam::error::printStack(Foam::Ostream&)[34] #0  Foam::error::printStack(Foam::Ostream&)[35] #0  Foam::error::printStack(Foam::Ostream&) at ??:?
 at ??:?
 at ??:?
 at ??:?
 at ??:?
[20] #1  Foam::sigFpe::sigHandler(int)[26] #1  Foam::sigFpe::sigHandler(int)[1] #1  Foam::sigFpe::sigHandler(int)[19] #1  Foam::sigFpe::sigHandler(int) at ??:?
[18] #1  Foam::sigFpe::sigHandler(int) at ??:?
 at ??:?
 at ??:?
 at ??:?
[29] #1  Foam::sigFpe::sigHandler(int)[34] #1  Foam::sigFpe::sigHandler(int) at ??:?
[31] #1  Foam::sigFpe::sigHandler(int)[32] #1  Foam::sigFpe::sigHandler(int)[28] #1  Foam::sigFpe::sigHandler(int)[24] #1  Foam::sigFpe::sigHandler(int) at ??:?
[4] #1  Foam::sigFpe::sigHandler(int) at ??:?
[3] #1  Foam::sigFpe::sigHandler(int) at ??:?
 at ??:?
[5] #1  Foam::sigFpe::sigHandler(int)[8] #1  Foam::sigFpe::sigHandler(int) at ??:?
[35] #1  Foam::sigFpe::sigHandler(int) at ??:?
[16] #1  Foam::sigFpe::sigHandler(int) at ??:?
[14] #1  Foam::sigFpe::sigHandler(int) at ??:?
[26] #2  ? at ??:?
[1] #2  ? at ??:?
[18] #2  ? at ??:?
[19] #2  ? at ??:?
[34] #2  ? at ??:?
[20] #2  ? at ??:?
[29] #2  ? at ??:?
[31] #2  ? at ??:?
[32] #2  ? at ??:?
[28] #2  ? in "/lib64/libpthread.so.0"
 at ??:?
[24] #2  ?[26] #3  Foam::symGaussSeidelSmoother::smooth(Foam::word const&, Foam::Field<double>&, Foam::lduMatrix const&, Foam::Field<double> const&, Foam::FieldField<Foam::Field, double> const&, Foam::UPtrList<Foam::lduInterfaceField const> const&, unsigned char, int) in "/lib64/libpthread.so.0"
[1] #3  Foam::symGaussSeidelSmoother::smooth(Foam::word const&, Foam::Field<double>&, Foam::lduMatrix const&, Foam::Field<double> const&, Foam::FieldField<Foam::Field, double> const&, Foam::UPtrList<Foam::lduInterfaceField const> const&, unsigned char, int) at ??:?
[4] #2  ? at ??:?
[3] #2  ? in "/lib64/libpthread.so.0"
 at ??:?
[5] #2  ?[18] #3  Foam::symGaussSeidelSmoother::smooth(Foam::word const&, Foam::Field<double>&, Foam::lduMatrix const&, Foam::Field<double> const&, Foam::FieldField<Foam::Field, double> const&, Foam::UPtrList<Foam::lduInterfaceField const> const&, unsigned char, int) at ??:?
[8] #2  ? in "/lib64/libpthread.so.0"
[34] #3  Foam::symGaussSeidelSmoother::smooth(Foam::word const&, Foam::Field<double>&, Foam::lduMatrix const&, Foam::Field<double> const&, Foam::FieldField<Foam::Field, double> const&, Foam::UPtrList<Foam::lduInterfaceField const> const&, unsigned char, int) in "/lib64/libpthread.so.0"
[19] #3  Foam::symGaussSeidelSmoother::smooth(Foam::word const&, Foam::Field<double>&, Foam::lduMatrix const&, Foam::Field<double> const&, Foam::FieldField<Foam::Field, double> const&, Foam::UPtrList<Foam::lduInterfaceField const> const&, unsigned char, int) at ??:?
[35] #2  ? in "/lib64/libpthread.so.0"
[20] #3  Foam::symGaussSeidelSmoother::smooth(Foam::word const&, Foam::Field<double>&, Foam::lduMatrix const&, Foam::Field<double> const&, Foam::FieldField<Foam::Field, double> const&, Foam::UPtrList<Foam::lduInterfaceField const> const&, unsigned char, int) at ??:?
[14] #2  ? at ??:?
[16] #2  ? in "/lib64/libpthread.so.0"
[29] #3  Foam::symGaussSeidelSmoother::smooth(Foam::word const&, Foam::Field<double>&, Foam::lduMatrix const&, Foam::Field<double> const&, Foam::FieldField<Foam::Field, double> const&, Foam::UPtrList<Foam::lduInterfaceField const> const&, unsigned char, int) in "/lib64/libpthread.so.0"
[31] #3  Foam::symGaussSeidelSmoother::smooth(Foam::word const&, Foam::Field<double>&, Foam::lduMatrix const&, Foam::Field<double> const&, Foam::FieldField<Foam::Field, double> const&, Foam::UPtrList<Foam::lduInterfaceField const> const&, unsigned char, int) in "/lib64/libpthread.so.0"
[32] #3  Foam::symGaussSeidelSmoother::smooth(Foam::word const&, Foam::Field<double>&, Foam::lduMatrix const&, Foam::Field<double> const&, Foam::FieldField<Foam::Field, double> const&, Foam::UPtrList<Foam::lduInterfaceField const> const&, unsigned char, int) in "/lib64/libpthread.so.0"
[28] #3  Foam::symGaussSeidelSmoother::smooth(Foam::word const&, Foam::Field<double>&, Foam::lduMatrix const&, Foam::Field<double> const&, Foam::FieldField<Foam::Field, double> const&, Foam::UPtrList<Foam::lduInterfaceField const> const&, unsigned char, int) in "/lib64/libpthread.so.0"
[24] #3  Foam::symGaussSeidelSmoother::smooth(Foam::word const&, Foam::Field<double>&, Foam::lduMatrix const&, Foam::Field<double> const&, Foam::FieldField<Foam::Field, double> const&, Foam::UPtrList<Foam::lduInterfaceField const> const&, unsigned char, int) in "/lib64/libpthread.so.0"
[4] #3  Foam::symGaussSeidelSmoother::smooth(Foam::word const&, Foam::Field<double>&, Foam::lduMatrix const&, Foam::Field<double> const&, Foam::FieldField<Foam::Field, double> const&, Foam::UPtrList<Foam::lduInterfaceField const> const&, unsigned char, int) in "/lib64/libpthread.so.0"
[3] #3  Foam::symGaussSeidelSmoother::smooth(Foam::word const&, Foam::Field<double>&, Foam::lduMatrix const&, Foam::Field<double> const&, Foam::FieldField<Foam::Field, double> const&, Foam::UPtrList<Foam::lduInterfaceField const> const&, unsigned char, int) in "/lib64/libpthread.so.0"
[5] #3  Foam::symGaussSeidelSmoother::smooth(Foam::word const&, Foam::Field<double>&, Foam::lduMatrix const&, Foam::Field<double> const&, Foam::FieldField<Foam::Field, double> const&, Foam::UPtrList<Foam::lduInterfaceField const> const&, unsigned char, int) in "/lib64/libpthread.so.0"
[8] #3  Foam::symGaussSeidelSmoother::smooth(Foam::word const&, Foam::Field<double>&, Foam::lduMatrix const&, Foam::Field<double> const&, Foam::FieldField<Foam::Field, double> const&, Foam::UPtrList<Foam::lduInterfaceField const> const&, unsigned char, int) in "/lib64/libpthread.so.0"
[35] #3  Foam::symGaussSeidelSmoother::smooth(Foam::word const&, Foam::Field<double>&, Foam::lduMatrix const&, Foam::Field<double> const&, Foam::FieldField<Foam::Field, double> const&, Foam::UPtrList<Foam::lduInterfaceField const> const&, unsigned char, int) in "/lib64/libpthread.so.0"
[14] #3  Foam::symGaussSeidelSmoother::smooth(Foam::word const&, Foam::Field<double>&, Foam::lduMatrix const&, Foam::Field<double> const&, Foam::FieldField<Foam::Field, double> const&, Foam::UPtrList<Foam::lduInterfaceField const> const&, unsigned char, int) in "/lib64/libpthread.so.0"
[16] #3  Foam::symGaussSeidelSmoother::smooth(Foam::word const&, Foam::Field<double>&, Foam::lduMatrix const&, Foam::Field<double> const&, Foam::FieldField<Foam::Field, double> const&, Foam::UPtrList<Foam::lduInterfaceField const> const&, unsigned char, int) at ??:?
[26] #4  Foam::symGaussSeidelSmoother::smooth(Foam::Field<double>&, Foam::Field<double> const&, unsigned char, int) const at ??:?
[1] #4  Foam::symGaussSeidelSmoother::smooth(Foam::Field<double>&, Foam::Field<double> const&, unsigned char, int) const at ??:?
[18] #4  Foam::symGaussSeidelSmoother::smooth(Foam::Field<double>&, Foam::Field<double> const&, unsigned char, int) const at ??:?
[34] #4  Foam::symGaussSeidelSmoother::smooth(Foam::Field<double>&, Foam::Field<double> const&, unsigned char, int) const at ??:?
[19] #4  Foam::symGaussSeidelSmoother::smooth(Foam::Field<double>&, Foam::Field<double> const&, unsigned char, int) const at ??:?
[20] #4  Foam::symGaussSeidelSmoother::smooth(Foam::Field<double>&, Foam::Field<double> const&, unsigned char, int) const at ??:?
[29] #4  Foam::symGaussSeidelSmoother::smooth(Foam::Field<double>&, Foam::Field<double> const&, unsigned char, int) const at ??:?
[31] #4  Foam::symGaussSeidelSmoother::smooth(Foam::Field<double>&, Foam::Field<double> const&, unsigned char, int) const at ??:?
[32] #4  Foam::symGaussSeidelSmoother::smooth(Foam::Field<double>&, Foam::Field<double> const&, unsigned char, int) const at ??:?
[28] #4  Foam::symGaussSeidelSmoother::smooth(Foam::Field<double>&, Foam::Field<double> const&, unsigned char, int) const at ??:?
[24] #4  Foam::symGaussSeidelSmoother::smooth(Foam::Field<double>&, Foam::Field<double> const&, unsigned char, int) const at ??:?
[4] #4  Foam::symGaussSeidelSmoother::smooth(Foam::Field<double>&, Foam::Field<double> const&, unsigned char, int) const at ??:?
[3] #4  Foam::symGaussSeidelSmoother::smooth(Foam::Field<double>&, Foam::Field<double> const&, unsigned char, int) const at ??:?
[5] #4  Foam::symGaussSeidelSmoother::smooth(Foam::Field<double>&, Foam::Field<double> const&, unsigned char, int) const at ??:?
[8] #4  Foam::symGaussSeidelSmoother::smooth(Foam::Field<double>&, Foam::Field<double> const&, unsigned char, int) const at ??:?
[35] #4  Foam::symGaussSeidelSmoother::smooth(Foam::Field<double>&, Foam::Field<double> const&, unsigned char, int) const at ??:?
 at ??:?
[16] #4  Foam::symGaussSeidelSmoother::smooth(Foam::Field<double>&, Foam::Field<double> const&, unsigned char, int) const[14] #4  Foam::symGaussSeidelSmoother::smooth(Foam::Field<double>&, Foam::Field<double> const&, unsigned char, int) const at ??:?
[26] #5  Foam::smoothSolver::solve(Foam::Field<double>&, Foam::Field<double> const&, unsigned char) const at ??:?
[1] #5  Foam::smoothSolver::solve(Foam::Field<double>&, Foam::Field<double> const&, unsigned char) const at ??:?
[18] #5  Foam::smoothSolver::solve(Foam::Field<double>&, Foam::Field<double> const&, unsigned char) const at ??:?
[34] #5  Foam::smoothSolver::solve(Foam::Field<double>&, Foam::Field<double> const&, unsigned char) const at ??:?
[19] #5  Foam::smoothSolver::solve(Foam::Field<double>&, Foam::Field<double> const&, unsigned char) const at ??:?
[20] #5  Foam::smoothSolver::solve(Foam::Field<double>&, Foam::Field<double> const&, unsigned char) const at ??:?
[29] #5  Foam::smoothSolver::solve(Foam::Field<double>&, Foam::Field<double> const&, unsigned char) const at ??:?
[31] #5  Foam::smoothSolver::solve(Foam::Field<double>&, Foam::Field<double> const&, unsigned char) const at ??:?
[32] #5  Foam::smoothSolver::solve(Foam::Field<double>&, Foam::Field<double> const&, unsigned char) const at ??:?
[28] #5  Foam::smoothSolver::solve(Foam::Field<double>&, Foam::Field<double> const&, unsigned char) const at ??:?
[24] #5  Foam::smoothSolver::solve(Foam::Field<double>&, Foam::Field<double> const&, unsigned char) const at ??:?
[4] #5  Foam::smoothSolver::solve(Foam::Field<double>&, Foam::Field<double> const&, unsigned char) const at ??:?
 at ??:?
[3] #5  Foam::smoothSolver::solve(Foam::Field<double>&, Foam::Field<double> const&, unsigned char) const[5] #5  Foam::smoothSolver::solve(Foam::Field<double>&, Foam::Field<double> const&, unsigned char) const at ??:?
 at ??:?
[8] #5  Foam::smoothSolver::solve(Foam::Field<double>&, Foam::Field<double> const&, unsigned char) const[35] #5  Foam::smoothSolver::solve(Foam::Field<double>&, Foam::Field<double> const&, unsigned char) const at ??:?
[16] #5  Foam::smoothSolver::solve(Foam::Field<double>&, Foam::Field<double> const&, unsigned char) const at ??:?
[14] #5  Foam::smoothSolver::solve(Foam::Field<double>&, Foam::Field<double> const&, unsigned char) const at ??:?
[26] #6   at ??:?
[1] #6   at ??:?
[18] #6   at ??:?
[34] #6   at ??:?
[19] #6   at ??:?
[20] #6  ?? at ??:?
[29] #6   at ??:?
[31] #6  ? at ??:?
[32] #6  ? at ??:?
[28] #6   at ??:?
[24] #6  ?? at ??:?
[5] #6   at ??:?
[4] #6   at ??:?
[3] #6  ? at ??:?
[8] #6   at ??:?
[26] #7  ? at ??:?
[1] #7   at ??:?
[35] #6   at ??:?
[16] #6  ? at ??:?
[14] #6   at ??:?
[18] #7  ?? at ??:?
[34] #7   at ??:?
[19] #7  ? at ??:?
[20] #7  ???? at ??:?
[29] #7  ?? at ??:?
[31] #7  ??? at ??:?
[32] #7  ???? at ??:?
[28] #7   at ??:?
[24] #7   at ??:?
[3] #7   at ??:?
[4] #7  ? at ??:?
 at ??:?
[5] #7  [1] #8   at ??:?
[26] #8   at ??:?
[8] #7   at ??:?
[35] #7   at ??:?
[16] #7  ? at ??:?
[14] #7   at ??:?
[18] #8   at ??:?
[34] #8   at ??:?
[19] #8   at ??:?
[20] #8  ?? at ??:?
[29] #8  ??? at ??:?
[31] #8  ??????? at ??:?
[32] #8  ????? at ??:?
[28] #8   at ??:?
[24] #8   at ??:?
 at ??:?
[5] #8  [4] #8   at ??:?
[26] #9   at ??:?
[1] #9   at ??:?
[8] #8   at ??:?
[3] #8   at ??:?
[35] #8   at ??:?
[16] #8  ? at ??:?
[14] #8   at ??:?
[18] #9   at ??:?
[34] #9   at ??:?
[19] #9   at ??:?
[20] #9  ?? at ??:?
[29] #9  ?? at ??:?
[31] #9  ????????????? at ??:?
[32] #9   at ??:?
[28] #9   at ??:?
[26] #10  __libc_start_main at ??:?
[24] #9   at ??:?
[8] #9   at ??:?
[1] #10  __libc_start_main at ??:?
[5] #9   at ??:?
[4] #9   at ??:?
[3] #9   at ??:?
[35] #9   at ??:?
[16] #9   at ??:?
[14] #9   at ??:?
[18] #10  __libc_start_main at ??:?
[34] #10  __libc_start_main at ??:?
[19] #10  __libc_start_main at ??:?
[20] #10  __libc_start_main? at ??:?
[29] #10  __libc_start_main? at ??:?
[31] #10  __libc_start_main?? in "/lib64/libc.so.6"
[26] #11  ?? in "/lib64/libc.so.6"
[1] #11  ???? in "/lib64/libc.so.6"
[18] #11   in "/lib64/libc.so.6"
[34] #11   in "/lib64/libc.so.6"
[19] #11   in "/lib64/libc.so.6"
[20] #11   in "/lib64/libc.so.6"
[29] #11  ? in "/lib64/libc.so.6"
[31] #11  ? at ??:?
[28] #10  __libc_start_main at ??:?
[24] #10  __libc_start_main at ??:?
[32] #10  __libc_start_main at ??:?
[4]  at ??:?
[5] #10  __libc_start_main#10  __libc_start_main at ??:?
[8] #10  __libc_start_main at ??:?
[35] #10  __libc_start_main? at ??:?
[16] #10  __libc_start_main at ??:?
[3] #10  __libc_start_main? at ??:?
[14] #10  __libc_start_main???? at ??:?
 at ??:?
 in "/lib64/libc.so.6"
[28] #11   in "/lib64/libc.so.6"
[24] #11   in "/lib64/libc.so.6"
[32] #11   in "/lib64/libc.so.6"
[4] #11   in 
===================================================================================
=   BAD TERMINATION OF ONE OF YOUR APPLICATION PROCESSES
=   PID 145718 RUNNING AT c406-051
=   EXIT CODE: 8
=   CLEANING UP REMAINING PROCESSES
=   YOU CAN IGNORE THE BELOW CLEANUP MESSAGES
===================================================================================
   Intel(R) MPI Library troubleshooting guide:
      https://software.intel.com/node/561764
===================================================================================
