/*---------------------------------------------------------------------------*\
  =========                 |
  \\      /  F ield         | OpenFOAM: The Open Source CFD Toolbox
   \\    /   O peration     | Website:  https://openfoam.org
    \\  /    A nd           | Version:  7
     \\/     M anipulation  |
\*---------------------------------------------------------------------------*/
Build  : 7-49b2b3b8b082
Exec   : icoFoam -parallel
Date   : Apr 24 2022
Time   : 20:33:25
Host   : "c401-033.stampede2.tacc.utexas.edu"
PID    : 18162
I/O    : uncollated
Case   : /work2/07705/jmj3957/stampede2/COE347FinalProject/diamond_test
nProcs : 36
Slaves : 
35
(
"c401-033.stampede2.tacc.utexas.edu.18163"
"c401-033.stampede2.tacc.utexas.edu.18164"
"c401-033.stampede2.tacc.utexas.edu.18165"
"c401-033.stampede2.tacc.utexas.edu.18166"
"c401-033.stampede2.tacc.utexas.edu.18167"
"c401-033.stampede2.tacc.utexas.edu.18168"
"c401-033.stampede2.tacc.utexas.edu.18169"
"c401-033.stampede2.tacc.utexas.edu.18170"
"c401-033.stampede2.tacc.utexas.edu.18171"
"c401-033.stampede2.tacc.utexas.edu.18172"
"c401-033.stampede2.tacc.utexas.edu.18173"
"c401-033.stampede2.tacc.utexas.edu.18174"
"c401-033.stampede2.tacc.utexas.edu.18175"
"c401-033.stampede2.tacc.utexas.edu.18176"
"c401-033.stampede2.tacc.utexas.edu.18177"
"c401-033.stampede2.tacc.utexas.edu.18178"
"c401-033.stampede2.tacc.utexas.edu.18179"
"c401-033.stampede2.tacc.utexas.edu.18180"
"c401-033.stampede2.tacc.utexas.edu.18181"
"c401-033.stampede2.tacc.utexas.edu.18182"
"c401-033.stampede2.tacc.utexas.edu.18183"
"c401-033.stampede2.tacc.utexas.edu.18184"
"c401-033.stampede2.tacc.utexas.edu.18185"
"c401-033.stampede2.tacc.utexas.edu.18186"
"c401-033.stampede2.tacc.utexas.edu.18187"
"c401-033.stampede2.tacc.utexas.edu.18188"
"c401-033.stampede2.tacc.utexas.edu.18189"
"c401-033.stampede2.tacc.utexas.edu.18190"
"c401-033.stampede2.tacc.utexas.edu.18191"
"c401-033.stampede2.tacc.utexas.edu.18192"
"c401-033.stampede2.tacc.utexas.edu.18193"
"c401-033.stampede2.tacc.utexas.edu.18194"
"c401-033.stampede2.tacc.utexas.edu.18195"
"c401-033.stampede2.tacc.utexas.edu.18196"
"c401-033.stampede2.tacc.utexas.edu.18197"
)

Pstream initialized with:
    floatTransfer      : 0
    nProcsSimpleSum    : 0
    commsType          : nonBlocking
    polling iterations : 0
sigFpe : Enabling floating point exception trapping (FOAM_SIGFPE).
fileModificationChecking : Monitoring run-time modified files using timeStampMaster (fileModificationSkew 10)
allowSystemOperations : Allowing user-supplied system call operations

// * * * * * * * * * * * * * * * * * * * * * * * * * * * * * * * * * * * * * //
Create time

Create mesh for time = 0

Reading transportProperties

Reading field p

Reading field U

Reading/calculating face flux field phi


Starting time loop

--> FOAM Warning : 
    From function void Foam::probes::findElements(const Foam::fvMesh &)
    in file probes/probes.C at line 119
    Did not find location (0 0 0) in any cell. Skipping location.
Reading set description:
    line1
    line2
    line3
    line4

forces forces:
--> FOAM Warning : 
    From function Foam::HashSet<int, Foam::Hash<int>> Foam::polyBoundaryMesh::patchSet(const Foam::UList<Foam::wordRe> &, bool, bool) const
    in file meshes/polyMesh/polyBoundaryMesh/polyBoundaryMesh.C at line 804
    Cannot find any patch or group names matching cylinder
    Not including porosity effects
forces forceCoeffs:
--> FOAM Warning : 
    From function Foam::HashSet<int, Foam::Hash<int>> Foam::polyBoundaryMesh::patchSet(const Foam::UList<Foam::wordRe> &, bool, bool) const
    in file meshes/polyMesh/polyBoundaryMesh/polyBoundaryMesh.C at line 804
    Cannot find any patch or group names matching cylinder
    Not including porosity effects
forceCoeffs forceCoeffs:
--> FOAM Warning : 
    From function Foam::HashSet<int, Foam::Hash<int>> Foam::polyBoundaryMesh::patchSet(const Foam::UList<Foam::wordRe> &, bool, bool) const
    in file meshes/polyMesh/polyBoundaryMesh/polyBoundaryMesh.C at line 804
    Cannot find any patch or group names matching cylinder
    Not including porosity effects
Time = 0.0002

Courant Number mean: 0.00201529 max: 0.039716
smoothSolver:  Solving for Ux, Initial residual = 1, Final residual = 3.35438e-08, No Iterations 10
smoothSolver:  Solving for Uy, Initial residual = 0, Final residual = 0, No Iterations 0
DICPCG:  Solving for p, Initial residual = 1, Final residual = 9.71891e-08, No Iterations 291
time step continuity errors : sum local = 9.76298e-14, global = -3.86642e-16, cumulative = -3.86642e-16
DICPCG:  Solving for p, Initial residual = 0.22183, Final residual = 9.22219e-08, No Iterations 273
time step continuity errors : sum local = 5.51646e-13, global = -7.43014e-15, cumulative = -7.81678e-15
ExecutionTime = 0.68 s  ClockTime = 2 s

forces forces write:
    sum of forces:
        pressure : (0 0 0)
        viscous  : (0 0 0)
        porous   : (0 0 0)
    sum of moments:
        pressure : (0 0 0)
        viscous  : (0 0 0)
        porous   : (0 0 0)

forceCoeffs forceCoeffs write:
    Cm    = 0
    Cd    = 0
    Cl    = 0
    Cl(f) = 0
    Cl(r) = 0

Time = 0.0004

Courant Number mean: 0.00200982 max: 0.0826753
smoothSolver:  Solving for Ux, Initial residual = 0.175371, Final residual = 2.21187e-08, No Iterations 6
smoothSolver:  Solving for Uy, Initial residual = 0.197126, Final residual = 3.18689e-08, No Iterations 7
DICPCG:  Solving for p, Initial residual = 0.464063, Final residual = 9.95864e-08, No Iterations 274
time step continuity errors : sum local = 8.04789e-13, global = -6.1349e-15, cumulative = -1.39517e-14
DICPCG:  Solving for p, Initial residual = 0.503644, Final residual = 9.77024e-08, No Iterations 270
time step continuity errors : sum local = 5.73369e-13, global = 1.79817e-15, cumulative = -1.21535e-14
ExecutionTime = 0.76 s  ClockTime = 2 s

forces forces write:
    sum of forces:
        pressure : (0 0 0)
        viscous  : (0 0 0)
        porous   : (0 0 0)
    sum of moments:
        pressure : (0 0 0)
        viscous  : (0 0 0)
        porous   : (0 0 0)

forceCoeffs forceCoeffs write:
    Cm    = 0
    Cd    = 0
    Cl    = 0
    Cl(f) = 0
    Cl(r) = 0

Time = 0.0006

Courant Number mean: 0.0020102 max: 0.0967783
smoothSolver:  Solving for Ux, Initial residual = 0.0474238, Final residual = 3.30423e-08, No Iterations 7
smoothSolver:  Solving for Uy, Initial residual = 0.0368251, Final residual = 3.89793e-08, No Iterations 7
DICPCG:  Solving for p, Initial residual = 0.910487, Final residual = 8.82153e-08, No Iterations 271
time step continuity errors : sum local = 7.53138e-13, global = 3.33942e-15, cumulative = -8.81409e-15
DICPCG:  Solving for p, Initial residual = 0.739913, Final residual = 9.61003e-08, No Iterations 272
time step continuity errors : sum local = 1.11602e-12, global = -1.19531e-14, cumulative = -2.07672e-14
ExecutionTime = 0.82 s  ClockTime = 2 s

forces forces write:
    sum of forces:
        pressure : (0 0 0)
        viscous  : (0 0 0)
        porous   : (0 0 0)
    sum of moments:
        pressure : (0 0 0)
        viscous  : (0 0 0)
        porous   : (0 0 0)

forceCoeffs forceCoeffs write:
    Cm    = 0
    Cd    = 0
    Cl    = 0
    Cl(f) = 0
    Cl(r) = 0

Time = 0.0008

Courant Number mean: 0.00201231 max: 0.169358
smoothSolver:  Solving for Ux, Initial residual = 0.052756, Final residual = 4.40818e-08, No Iterations 8
smoothSolver:  Solving for Uy, Initial residual = 0.0473546, Final residual = 3.06811e-08, No Iterations 8
DICPCG:  Solving for p, Initial residual = 0.980376, Final residual = 9.37616e-08, No Iterations 276
time step continuity errors : sum local = 2.55921e-12, global = 5.08379e-14, cumulative = 3.00708e-14
DICPCG:  Solving for p, Initial residual = 0.874195, Final residual = 8.94424e-08, No Iterations 275
time step continuity errors : sum local = 3.68889e-12, global = -6.31635e-14, cumulative = -3.30927e-14
ExecutionTime = 0.88 s  ClockTime = 2 s

forces forces write:
    sum of forces:
        pressure : (0 0 0)
        viscous  : (0 0 0)
        porous   : (0 0 0)
    sum of moments:
        pressure : (0 0 0)
        viscous  : (0 0 0)
        porous   : (0 0 0)

forceCoeffs forceCoeffs write:
    Cm    = 0
    Cd    = 0
    Cl    = 0
    Cl(f) = 0
    Cl(r) = 0

Time = 0.001

Courant Number mean: 0.00202482 max: 0.54675
smoothSolver:  Solving for Ux, Initial residual = 0.0653348, Final residual = 2.95813e-08, No Iterations 9
smoothSolver:  Solving for Uy, Initial residual = 0.114454, Final residual = 2.9814e-08, No Iterations 9
DICPCG:  Solving for p, Initial residual = 0.992216, Final residual = 9.21497e-08, No Iterations 274
time step continuity errors : sum local = 9.90988e-12, global = 1.25725e-13, cumulative = 9.26326e-14
DICPCG:  Solving for p, Initial residual = 0.93427, Final residual = 9.84934e-08, No Iterations 276
time step continuity errors : sum local = 1.61332e-11, global = -2.55582e-13, cumulative = -1.6295e-13
ExecutionTime = 0.95 s  ClockTime = 2 s

forces forces write:
    sum of forces:
        pressure : (0 0 0)
        viscous  : (0 0 0)
        porous   : (0 0 0)
    sum of moments:
        pressure : (0 0 0)
        viscous  : (0 0 0)
        porous   : (0 0 0)

forceCoeffs forceCoeffs write:
    Cm    = 0
    Cd    = 0
    Cl    = 0
    Cl(f) = 0
    Cl(r) = 0

Time = 0.0012

Courant Number mean: 0.00210997 max: 2.76464
smoothSolver:  Solving for Ux, Initial residual = 0.0687817, Final residual = 5.64192e-08, No Iterations 8
smoothSolver:  Solving for Uy, Initial residual = 0.190965, Final residual = 3.8959e-08, No Iterations 9
DICPCG:  Solving for p, Initial residual = 0.980355, Final residual = 8.99731e-08, No Iterations 279
time step continuity errors : sum local = 3.92954e-11, global = 4.41202e-13, cumulative = 2.78253e-13
DICPCG:  Solving for p, Initial residual = 0.939794, Final residual = 9.32288e-08, No Iterations 282
time step continuity errors : sum local = 6.42397e-11, global = 5.20059e-13, cumulative = 7.98312e-13
ExecutionTime = 1.01 s  ClockTime = 2 s

forces forces write:
    sum of forces:
        pressure : (0 0 0)
        viscous  : (0 0 0)
        porous   : (0 0 0)
    sum of moments:
        pressure : (0 0 0)
        viscous  : (0 0 0)
        porous   : (0 0 0)

forceCoeffs forceCoeffs write:
    Cm    = 0
    Cd    = 0
    Cl    = 0
    Cl(f) = 0
    Cl(r) = 0

Time = 0.0014

Courant Number mean: 0.00245291 max: 30.7677
[15] #0  Foam::error::printStack(Foam::Ostream&) at ??:?
[15] #1  Foam::sigFpe::sigHandler(int) at ??:?
[15] #2  ? in "/lib64/libpthread.so.0"
[15] #3  Foam::symGaussSeidelSmoother::smooth(Foam::word const&, Foam::Field<double>&, Foam::lduMatrix const&, Foam::Field<double> const&, Foam::FieldField<Foam::Field, double> const&, Foam::UPtrList<Foam::lduInterfaceField const> const&, unsigned char, int) at ??:?
[15] #4  Foam::symGaussSeidelSmoother::smooth(Foam::Field<double>&, Foam::Field<double> const&, unsigned char, int) const at ??:?
[15] #5  Foam::smoothSolver::solve(Foam::Field<double>&, Foam::Field<double> const&, unsigned char) const at ??:?
[15] #6  ? at ??:?
[15] #7  ? at ??:?
[15] #8  ? at ??:?
[15] #9  ? at ??:?
[15] #10  __libc_start_main in "/lib64/libc.so.6"
[15] #11  ? at ??:?

===================================================================================
=   BAD TERMINATION OF ONE OF YOUR APPLICATION PROCESSES
=   PID 18177 RUNNING AT c401-033
=   EXIT CODE: 8
=   CLEANING UP REMAINING PROCESSES
=   YOU CAN IGNORE THE BELOW CLEANUP MESSAGES
===================================================================================
   Intel(R) MPI Library troubleshooting guide:
      https://software.intel.com/node/561764
===================================================================================
