/*---------------------------------------------------------------------------*\
  =========                 |
  \\      /  F ield         | OpenFOAM: The Open Source CFD Toolbox
   \\    /   O peration     | Website:  https://openfoam.org
    \\  /    A nd           | Version:  7
     \\/     M anipulation  |
\*---------------------------------------------------------------------------*/
Build  : 7-49b2b3b8b082
Exec   : decomposePar
Date   : Apr 24 2022
Time   : 20:33:04
Host   : "c401-033.stampede2.tacc.utexas.edu"
PID    : 12679
I/O    : uncollated
Case   : /work2/07705/jmj3957/stampede2/COE347FinalProject/diamond_test
nProcs : 1
sigFpe : Enabling floating point exception trapping (FOAM_SIGFPE).
fileModificationChecking : Monitoring run-time modified files using timeStampMaster (fileModificationSkew 10)
allowSystemOperations : Allowing user-supplied system call operations

// * * * * * * * * * * * * * * * * * * * * * * * * * * * * * * * * * * * * * //
Create time



Decomposing mesh region0

Create mesh

Calculating distribution of cells
 Foam::decompositionMethod::New 
{
    numberOfSubdomains 36;
    method          hierarchical;
    simpleCoeffs
    {
        n               ( 6 6 1 );
        delta           0.0002;
    }
    hierarchicalCoeffs
    {
        n               ( 6 6 1 );
        delta           0.0002;
        order           xyz;
    }
}

Selecting decompositionMethod hierarchical

Finished decomposition in 0.01 s

Calculating original mesh data

Distributing cells to processors

Distributing faces to processors

Distributing points to processors

Constructing processor meshes

Processor 0
    Number of cells = 333
    Number of faces shared with processor 1 = 28
    Number of faces shared with processor 6 = 22
    Number of faces shared with processor 7 = 1
    Number of processor patches = 3
    Number of processor faces = 51
    Number of boundary faces = 703

Processor 1
    Number of cells = 333
    Number of faces shared with processor 0 = 28
    Number of faces shared with processor 2 = 33
    Number of faces shared with processor 7 = 18
    Number of faces shared with processor 8 = 4
    Number of processor patches = 4
    Number of processor faces = 83
    Number of boundary faces = 677

Processor 2
    Number of cells = 333
    Number of faces shared with processor 1 = 33
    Number of faces shared with processor 3 = 31
    Number of faces shared with processor 8 = 14
    Number of processor patches = 3
    Number of processor faces = 78
    Number of boundary faces = 678

Processor 3
    Number of cells = 333
    Number of faces shared with processor 2 = 31
    Number of faces shared with processor 4 = 25
    Number of faces shared with processor 8 = 4
    Number of faces shared with processor 9 = 19
    Number of faces shared with processor 10 = 7
    Number of processor patches = 5
    Number of processor faces = 86
    Number of boundary faces = 678

Processor 4
    Number of cells = 333
    Number of faces shared with processor 3 = 25
    Number of faces shared with processor 5 = 14
    Number of faces shared with processor 10 = 18
    Number of faces shared with processor 11 = 6
    Number of processor patches = 4
    Number of processor faces = 63
    Number of boundary faces = 683

Processor 5
    Number of cells = 333
    Number of faces shared with processor 4 = 14
    Number of faces shared with processor 11 = 25
    Number of processor patches = 2
    Number of processor faces = 39
    Number of boundary faces = 703

Processor 6
    Number of cells = 333
    Number of faces shared with processor 0 = 22
    Number of faces shared with processor 7 = 25
    Number of faces shared with processor 12 = 41
    Number of processor patches = 3
    Number of processor faces = 88
    Number of boundary faces = 678

Processor 7
    Number of cells = 333
    Number of faces shared with processor 0 = 1
    Number of faces shared with processor 1 = 18
    Number of faces shared with processor 6 = 25
    Number of faces shared with processor 8 = 18
    Number of faces shared with processor 12 = 1
    Number of faces shared with processor 13 = 28
    Number of faces shared with processor 14 = 9
    Number of processor patches = 7
    Number of processor faces = 100
    Number of boundary faces = 666

Processor 8
    Number of cells = 333
    Number of faces shared with processor 1 = 4
    Number of faces shared with processor 2 = 14
    Number of faces shared with processor 3 = 4
    Number of faces shared with processor 7 = 18
    Number of faces shared with processor 9 = 20
    Number of faces shared with processor 14 = 24
    Number of processor patches = 6
    Number of processor faces = 84
    Number of boundary faces = 666

Processor 9
    Number of cells = 333
    Number of faces shared with processor 3 = 19
    Number of faces shared with processor 8 = 20
    Number of faces shared with processor 10 = 15
    Number of faces shared with processor 14 = 4
    Number of faces shared with processor 15 = 26
    Number of faces shared with processor 16 = 10
    Number of processor patches = 6
    Number of processor faces = 94
    Number of boundary faces = 666

Processor 10
    Number of cells = 333
    Number of faces shared with processor 3 = 7
    Number of faces shared with processor 4 = 18
    Number of faces shared with processor 9 = 15
    Number of faces shared with processor 11 = 11
    Number of faces shared with processor 16 = 36
    Number of faces shared with processor 17 = 5
    Number of processor patches = 6
    Number of processor faces = 92
    Number of boundary faces = 666

Processor 11
    Number of cells = 333
    Number of faces shared with processor 4 = 6
    Number of faces shared with processor 5 = 25
    Number of faces shared with processor 10 = 11
    Number of faces shared with processor 17 = 30
    Number of processor patches = 4
    Number of processor faces = 72
    Number of boundary faces = 678

Processor 12
    Number of cells = 333
    Number of faces shared with processor 6 = 41
    Number of faces shared with processor 7 = 1
    Number of faces shared with processor 13 = 25
    Number of faces shared with processor 18 = 50
    Number of processor patches = 4
    Number of processor faces = 117
    Number of boundary faces = 673

Processor 13
    Number of cells = 333
    Number of faces shared with processor 7 = 28
    Number of faces shared with processor 12 = 25
    Number of faces shared with processor 14 = 10
    Number of faces shared with processor 18 = 3
    Number of faces shared with processor 19 = 5
    Number of processor patches = 5
    Number of processor faces = 71
    Number of boundary faces = 691

Processor 14
    Number of cells = 333
    Number of faces shared with processor 7 = 9
    Number of faces shared with processor 8 = 24
    Number of faces shared with processor 9 = 4
    Number of faces shared with processor 13 = 10
    Number of faces shared with processor 15 = 13
    Number of faces shared with processor 20 = 2
    Number of faces shared with processor 21 = 2
    Number of processor patches = 7
    Number of processor faces = 64
    Number of boundary faces = 698

Processor 15
    Number of cells = 333
    Number of faces shared with processor 9 = 26
    Number of faces shared with processor 14 = 13
    Number of faces shared with processor 16 = 19
    Number of faces shared with processor 21 = 12
    Number of faces shared with processor 22 = 1
    Number of processor patches = 5
    Number of processor faces = 71
    Number of boundary faces = 689

Processor 16
    Number of cells = 333
    Number of faces shared with processor 9 = 10
    Number of faces shared with processor 10 = 36
    Number of faces shared with processor 15 = 19
    Number of faces shared with processor 17 = 8
    Number of faces shared with processor 22 = 45
    Number of processor patches = 5
    Number of processor faces = 118
    Number of boundary faces = 666

Processor 17
    Number of cells = 333
    Number of faces shared with processor 10 = 5
    Number of faces shared with processor 11 = 30
    Number of faces shared with processor 16 = 8
    Number of faces shared with processor 22 = 2
    Number of faces shared with processor 23 = 32
    Number of processor patches = 5
    Number of processor faces = 77
    Number of boundary faces = 679

Processor 18
    Number of cells = 333
    Number of faces shared with processor 12 = 50
    Number of faces shared with processor 13 = 3
    Number of faces shared with processor 19 = 30
    Number of faces shared with processor 24 = 48
    Number of faces shared with processor 25 = 1
    Number of processor patches = 5
    Number of processor faces = 132
    Number of boundary faces = 672

Processor 19
    Number of cells = 333
    Number of faces shared with processor 13 = 5
    Number of faces shared with processor 18 = 30
    Number of faces shared with processor 20 = 13
    Number of faces shared with processor 25 = 25
    Number of processor patches = 4
    Number of processor faces = 73
    Number of boundary faces = 697

Processor 20
    Number of cells = 333
    Number of faces shared with processor 14 = 2
    Number of faces shared with processor 19 = 13
    Number of faces shared with processor 21 = 8
    Number of faces shared with processor 25 = 2
    Number of faces shared with processor 26 = 26
    Number of faces shared with processor 27 = 13
    Number of processor patches = 6
    Number of processor faces = 64
    Number of boundary faces = 694

Processor 21
    Number of cells = 333
    Number of faces shared with processor 14 = 2
    Number of faces shared with processor 15 = 12
    Number of faces shared with processor 20 = 8
    Number of faces shared with processor 22 = 19
    Number of faces shared with processor 27 = 26
    Number of processor patches = 5
    Number of processor faces = 67
    Number of boundary faces = 687

Processor 22
    Number of cells = 333
    Number of faces shared with processor 15 = 1
    Number of faces shared with processor 16 = 45
    Number of faces shared with processor 17 = 2
    Number of faces shared with processor 21 = 19
    Number of faces shared with processor 23 = 5
    Number of faces shared with processor 27 = 6
    Number of faces shared with processor 28 = 36
    Number of processor patches = 7
    Number of processor faces = 114
    Number of boundary faces = 666

Processor 23
    Number of cells = 333
    Number of faces shared with processor 17 = 32
    Number of faces shared with processor 22 = 5
    Number of faces shared with processor 28 = 7
    Number of faces shared with processor 29 = 28
    Number of processor patches = 4
    Number of processor faces = 72
    Number of boundary faces = 680

Processor 24
    Number of cells = 333
    Number of faces shared with processor 18 = 48
    Number of faces shared with processor 25 = 21
    Number of faces shared with processor 30 = 28
    Number of processor patches = 3
    Number of processor faces = 97
    Number of boundary faces = 675

Processor 25
    Number of cells = 333
    Number of faces shared with processor 18 = 1
    Number of faces shared with processor 19 = 25
    Number of faces shared with processor 20 = 2
    Number of faces shared with processor 24 = 21
    Number of faces shared with processor 26 = 20
    Number of faces shared with processor 30 = 2
    Number of faces shared with processor 31 = 17
    Number of processor patches = 7
    Number of processor faces = 88
    Number of boundary faces = 666

Processor 26
    Number of cells = 333
    Number of faces shared with processor 20 = 26
    Number of faces shared with processor 25 = 20
    Number of faces shared with processor 27 = 17
    Number of faces shared with processor 31 = 2
    Number of faces shared with processor 32 = 15
    Number of faces shared with processor 33 = 4
    Number of processor patches = 6
    Number of processor faces = 84
    Number of boundary faces = 666

Processor 27
    Number of cells = 333
    Number of faces shared with processor 20 = 13
    Number of faces shared with processor 21 = 26
    Number of faces shared with processor 22 = 6
    Number of faces shared with processor 26 = 17
    Number of faces shared with processor 28 = 21
    Number of faces shared with processor 33 = 19
    Number of processor patches = 6
    Number of processor faces = 102
    Number of boundary faces = 666

Processor 28
    Number of cells = 333
    Number of faces shared with processor 22 = 36
    Number of faces shared with processor 23 = 7
    Number of faces shared with processor 27 = 21
    Number of faces shared with processor 29 = 8
    Number of faces shared with processor 33 = 5
    Number of faces shared with processor 34 = 21
    Number of processor patches = 6
    Number of processor faces = 98
    Number of boundary faces = 666

Processor 29
    Number of cells = 333
    Number of faces shared with processor 23 = 28
    Number of faces shared with processor 28 = 8
    Number of faces shared with processor 34 = 6
    Number of faces shared with processor 35 = 26
    Number of processor patches = 4
    Number of processor faces = 68
    Number of boundary faces = 680

Processor 30
    Number of cells = 335
    Number of faces shared with processor 24 = 28
    Number of faces shared with processor 25 = 2
    Number of faces shared with processor 31 = 33
    Number of processor patches = 3
    Number of processor faces = 63
    Number of boundary faces = 707

Processor 31
    Number of cells = 335
    Number of faces shared with processor 25 = 17
    Number of faces shared with processor 26 = 2
    Number of faces shared with processor 30 = 33
    Number of faces shared with processor 32 = 31
    Number of processor patches = 4
    Number of processor faces = 83
    Number of boundary faces = 681

Processor 32
    Number of cells = 335
    Number of faces shared with processor 26 = 15
    Number of faces shared with processor 31 = 31
    Number of faces shared with processor 33 = 32
    Number of processor patches = 3
    Number of processor faces = 78
    Number of boundary faces = 682

Processor 33
    Number of cells = 335
    Number of faces shared with processor 26 = 4
    Number of faces shared with processor 27 = 19
    Number of faces shared with processor 28 = 5
    Number of faces shared with processor 32 = 32
    Number of faces shared with processor 34 = 22
    Number of processor patches = 5
    Number of processor faces = 82
    Number of boundary faces = 682

Processor 34
    Number of cells = 335
    Number of faces shared with processor 28 = 21
    Number of faces shared with processor 29 = 6
    Number of faces shared with processor 33 = 22
    Number of faces shared with processor 35 = 14
    Number of processor patches = 4
    Number of processor faces = 63
    Number of boundary faces = 687

Processor 35
    Number of cells = 335
    Number of faces shared with processor 29 = 26
    Number of faces shared with processor 34 = 14
    Number of processor patches = 2
    Number of processor faces = 40
    Number of boundary faces = 708

Number of processor faces = 1458
Max number of cells = 335 (0.5% above average 333.333)
Max number of processor patches = 7 (50% above average 4.66667)
Max number of faces between processors = 132 (62.963% above average 81)

Time = 0

Processor 0: field transfer
Processor 1: field transfer
Processor 2: field transfer
Processor 3: field transfer
Processor 4: field transfer
Processor 5: field transfer
Processor 6: field transfer
Processor 7: field transfer
Processor 8: field transfer
Processor 9: field transfer
Processor 10: field transfer
Processor 11: field transfer
Processor 12: field transfer
Processor 13: field transfer
Processor 14: field transfer
Processor 15: field transfer
Processor 16: field transfer
Processor 17: field transfer
Processor 18: field transfer
Processor 19: field transfer
Processor 20: field transfer
Processor 21: field transfer
Processor 22: field transfer
Processor 23: field transfer
Processor 24: field transfer
Processor 25: field transfer
Processor 26: field transfer
Processor 27: field transfer
Processor 28: field transfer
Processor 29: field transfer
Processor 30: field transfer
Processor 31: field transfer
Processor 32: field transfer
Processor 33: field transfer
Processor 34: field transfer
Processor 35: field transfer

End

