/*---------------------------------------------------------------------------*\
  =========                 |
  \\      /  F ield         | OpenFOAM: The Open Source CFD Toolbox
   \\    /   O peration     | Website:  https://openfoam.org
    \\  /    A nd           | Version:  7
     \\/     M anipulation  |
\*---------------------------------------------------------------------------*/
Build  : 7-49b2b3b8b082
Exec   : blockMesh
Date   : Apr 24 2022
Time   : 19:56:09
Host   : "c417-092.stampede2.tacc.utexas.edu"
PID    : 256570
I/O    : uncollated
Case   : /work2/07705/jmj3957/stampede2/COE347FinalProject/diamond_test
nProcs : 1
sigFpe : Enabling floating point exception trapping (FOAM_SIGFPE).
fileModificationChecking : Monitoring run-time modified files using timeStampMaster (fileModificationSkew 10)
allowSystemOperations : Allowing user-supplied system call operations

// * * * * * * * * * * * * * * * * * * * * * * * * * * * * * * * * * * * * * //
Create time

Creating block mesh from
    "/work2/07705/jmj3957/stampede2/COE347FinalProject/diamond_test/system/blockMeshDict"
No non-linear block edges defined
No non-planar block faces defined
Creating topology blocks
Creating topology patches

Creating block mesh topology
--> FOAM Warning : 
    From function Foam::polyMesh::polyMesh(const Foam::IOobject &, Foam::Field<Foam::Vector<double>> &&, const Foam::List<Foam::cellShape> &, const Foam::List<Foam::List<Foam::face>> &, const Foam::List<Foam::word> &, const Foam::PtrList<Foam::dictionary> &, const Foam::word &, const Foam::word &, bool)
    in file meshes/polyMesh/polyMeshFromShapeMesh.C at line 873
    Found 40 undefined faces in mesh; adding to default patch.

Check topology

	Basic statistics
		Number of internal faces : 28
		Number of boundary faces : 64
		Number of defined boundary faces : 64
		Number of undefined boundary faces : 0
	Checking patch -> block consistency

Creating block offsets
Creating merge list .

Creating polyMesh from blockMesh
Creating points with scale 1
    Block 0 cell size :
        i : 0.00865563 .. 0.0173113 0.00844202 .. 0.016884 0.00865563 .. 0.0173113 0.00844202 .. 0.016884 
        j : 0.0127476 0.0130033 .. 0.0130033 0.0127476 0.0130033 .. 0.0130033 
        k : 0.1
    Block 1 cell size :
        i : 0.00612048 .. 0.012241 0.00612812 .. 0.0122562 0.00612048 .. 0.012241 0.00612812 .. 0.0122562 
        j : 0.0127473 .. 0.0127473 0.0130031 .. 0.0130031 0.0127473 .. 0.0127473 0.0130031 .. 0.0130031 
        k : 0.1
    Block 2 cell size :
        i : 0.00865544 .. 0.0173109 0.00844183 .. 0.0168837 0.00865544 .. 0.0173109 0.00844183 .. 0.0168837 
        j : 0.0127476 .. 0.0127476 0.0130033 .. 0.0130033 0.0127476 .. 0.0127476 0.0130033 .. 0.0130033 
        k : 0.1
    Block 3 cell size :
        i : 0.00612044 .. 0.0122409 0.00612808 .. 0.0122562 0.00612044 .. 0.0122409 0.00612808 .. 0.0122562 
        j : 0.0127473 0.0130031 .. 0.0130031 0.0127473 0.0130031 .. 0.0130031 
        k : 0.1
    Block 4 cell size :
        i : 0.00865563 .. 0.0173113 0.00844202 .. 0.016884 0.00865563 .. 0.0173113 0.00844202 .. 0.016884 
        j : 0.0127476 0.0130033 .. 0.0130033 0.0127476 0.0130033 .. 0.0130033 
        k : 0.1
    Block 5 cell size :
        i : 0.00612048 .. 0.012241 0.00612812 .. 0.0122562 0.00612048 .. 0.012241 0.00612812 .. 0.0122562 
        j : 0.0127473 .. 0.0127473 0.0130031 .. 0.0130031 0.0127473 .. 0.0127473 0.0130031 .. 0.0130031 
        k : 0.1
    Block 6 cell size :
        i : 0.00865544 .. 0.0173109 0.00844183 .. 0.0168837 0.00865544 .. 0.0173109 0.00844183 .. 0.0168837 
        j : 0.0127476 .. 0.0127476 0.0130033 .. 0.0130033 0.0127476 .. 0.0127476 0.0130033 .. 0.0130033 
        k : 0.1
    Block 7 cell size :
        i : 0.00612044 .. 0.0122409 0.00612808 .. 0.0122562 0.00612044 .. 0.0122409 0.00612808 .. 0.0122562 
        j : 0.0127473 0.0130031 .. 0.0130031 0.0127473 0.0130031 .. 0.0130031 
        k : 0.1
    Block 8 cell size :
        i : 0.0868702 .. 0.17374 0.0872487 .. 0.174497 0.0868702 .. 0.17374 0.0872487 .. 0.174497 
        j : 0.0291549 .. 0.0291549 0.0288211 .. 0.0288211 0.0291549 .. 0.0291549 0.0288211 .. 0.0288211 
        k : 0.1
    Block 9 cell size :
        i : 0.0944537 .. 0.188907 0.094474 .. 0.188948 0.0944537 .. 0.188907 0.094474 .. 0.188948 
        j : 0.1036 .. 0.310801 0.103557 .. 0.310671 0.1036 .. 0.310801 0.103557 .. 0.310671 
        k : 0.1
    Block 10 cell size :
        i : 0.1036 .. 0.310801 0.103079 .. 0.309237 0.1036 .. 0.310801 0.103079 .. 0.309237 
        j : 0.0291546 .. 0.0291546 0.0288773 .. 0.0288773 0.0291546 .. 0.0291546 0.0288773 .. 0.0288773 
        k : 0.1
    Block 11 cell size :
        i : 0.0931921 .. 0.279576 0.0934751 .. 0.280425 0.0931921 .. 0.279576 0.0934751 .. 0.280425 
        j : 0.0291547 .. 0.0291547 0.028997 0.0291547 .. 0.0291547 0.028997 
        k : 0.1
    Block 12 cell size :
        i : 0.098862 .. 0.296586 0.0989493 .. 0.296848 0.098862 .. 0.296586 0.0989493 .. 0.296848 
        j : 0.14003 .. 0.700152 0.139964 .. 0.699821 0.14003 .. 0.700152 0.139964 .. 0.699821 
        k : 0.1
    Block 13 cell size :
        i : 0.14003 .. 0.700152 0.138964 .. 0.694821 0.14003 .. 0.700152 0.138964 .. 0.694821 
        j : 0.0291549 .. 0.0291549 0.0282247 .. 0.0282247 0.0291549 .. 0.0291549 0.0282247 .. 0.0282247 
        k : 0.1
    Block 14 cell size :
        i : 0.118776 .. 0.593879 0.119631 .. 0.598155 0.118776 .. 0.593879 0.119631 .. 0.598155 
        j : 0.0291549 .. 0.0291549 0.0283985 .. 0.0283985 0.0291549 .. 0.0291549 0.0283985 .. 0.0283985 
        k : 0.1
    Block 15 cell size :
        i : 0.135943 .. 0.679715 0.135988 .. 0.679941 0.135943 .. 0.679715 0.135988 .. 0.679941 
        j : 0.1036 .. 0.310801 0.103502 .. 0.310505 0.1036 .. 0.310801 0.103502 .. 0.310505 
        k : 0.1
    Block 16 cell size :
        i : 0.1036 .. 0.310801 0.103079 .. 0.309237 0.1036 .. 0.310801 0.103079 .. 0.309237 
        j : 0.0291546 .. 0.0291546 0.0288773 .. 0.0288773 0.0291546 .. 0.0291546 0.0288773 .. 0.0288773 
        k : 0.1
    Block 17 cell size :
        i : 0.0931921 .. 0.279576 0.0934751 .. 0.280425 0.0931921 .. 0.279576 0.0934751 .. 0.280425 
        j : 0.0291547 .. 0.0291547 0.028997 0.0291547 .. 0.0291547 0.028997 
        k : 0.1
    Block 18 cell size :
        i : 0.098862 .. 0.296586 0.0989004 .. 0.296701 0.098862 .. 0.296586 0.0989004 .. 0.296701 
        j : 0.0962546 .. 0.192509 0.0962258 .. 0.192452 0.0962546 .. 0.192509 0.0962258 .. 0.192452 
        k : 0.1
    Block 19 cell size :
        i : 0.0962546 .. 0.192509 0.0957845 .. 0.191569 0.0962546 .. 0.192509 0.0957845 .. 0.191569 
        j : 0.0291549 .. 0.0291549 0.0287441 .. 0.0287441 0.0291549 .. 0.0291549 0.0287441 .. 0.0287441 
        k : 0.1
Creating cells
Creating patches

There are no merge patch pairs edges

Writing polyMesh
----------------
Mesh Information
----------------
  boundingBox: (-4 -4 -0.05) (6 4 0.05)
  nPoints: 24500
  nCells: 12000
  nFaces: 48250
  nInternalFaces: 23750
----------------
Patches
----------------
  patch 0 (start: 23750 size: 80) name: inlet
  patch 1 (start: 23830 size: 80) name: outlet
  patch 2 (start: 23910 size: 160) name: airfoil
  patch 3 (start: 24070 size: 90) name: top
  patch 4 (start: 24160 size: 90) name: bottom
  patch 5 (start: 24250 size: 24000) name: defaultFaces

End

