/*---------------------------------------------------------------------------*\
  =========                 |
  \\      /  F ield         | OpenFOAM: The Open Source CFD Toolbox
   \\    /   O peration     | Website:  https://openfoam.org
    \\  /    A nd           | Version:  7
     \\/     M anipulation  |
\*---------------------------------------------------------------------------*/
Build  : 7-49b2b3b8b082
Exec   : checkMesh
Date   : Apr 24 2022
Time   : 19:42:00
Host   : "c415-003.stampede2.tacc.utexas.edu"
PID    : 115136
I/O    : uncollated
Case   : /work2/07705/jmj3957/stampede2/COE347FinalProject/diamond_test
nProcs : 1
sigFpe : Enabling floating point exception trapping (FOAM_SIGFPE).
fileModificationChecking : Monitoring run-time modified files using timeStampMaster (fileModificationSkew 10)
allowSystemOperations : Allowing user-supplied system call operations

// * * * * * * * * * * * * * * * * * * * * * * * * * * * * * * * * * * * * * //
Create time

Create polyMesh for time = 0

Time = 0

Mesh stats
    points:           24500
    internal points:  0
    faces:            48250
    internal faces:   23750
    cells:            12000
    faces per cell:   6
    boundary patches: 6
    point zones:      0
    face zones:       0
    cell zones:       0

Overall number of cells of each type:
    hexahedra:     12000
    prisms:        0
    wedges:        0
    pyramids:      0
    tet wedges:    0
    tetrahedra:    0
    polyhedra:     0

Checking topology...
    Boundary definition OK.
    Cell to face addressing OK.
    Point usage OK.
    Upper triangular ordering OK.
    Face vertices OK.
    Number of regions: 1 (OK).

Checking patch topology for multiply connected surfaces...
    Patch               Faces    Points   Surface topology                  
    inlet               80       162      ok (non-closed singly connected)  
    outlet              80       162      ok (non-closed singly connected)  
    airfoil             160      320      ok (non-closed singly connected)  
    top                 90       182      ok (non-closed singly connected)  
    bottom              90       182      ok (non-closed singly connected)  
    defaultFaces        24000    24500    ok (non-closed singly connected)  

Checking geometry...
    Overall domain bounding box (-4 -4 -0.05) (6 4 0.05)
    Mesh has 2 geometric (non-empty/wedge) directions (1 1 0)
    Mesh has 2 solution (non-empty) directions (1 1 0)
 ***Number of edges not aligned with or perpendicular to non-empty directions: 11910
  <<Writing 23820 points on non-aligned edges to set nonAlignedEdges
    Boundary openness (-2.27906e-18 -5.51295e-19 -1.31945e-16) OK.
    Max cell openness = 1.60907e-15 OK.
    Max aspect ratio = 20.1561 OK.
    Minimum face area = 2.53508e-05. Maximum face area = 0.192727.  Face area magnitudes OK.
    Min volume = 2.52224e-06. Max volume = 0.0192504.  Total volume = 7.99005.  Cell volumes OK.
    Mesh non-orthogonality Max: 79.3882 average: 35.9726
   *Number of severely non-orthogonal (> 70 degrees) faces: 244.
    Non-orthogonality check OK.
  <<Writing 244 non-orthogonal faces to set nonOrthoFaces
    Face pyramids OK.
 ***Max skewness = 4.28018, 131 highly skew faces detected which may impair the quality of the results
  <<Writing 131 skew faces to set skewFaces
    Coupled point location match (average 0) OK.

Failed 2 mesh checks.

End

