/*---------------------------------------------------------------------------*\
  =========                 |
  \\      /  F ield         | OpenFOAM: The Open Source CFD Toolbox
   \\    /   O peration     | Website:  https://openfoam.org
    \\  /    A nd           | Version:  7
     \\/     M anipulation  |
\*---------------------------------------------------------------------------*/
Build  : 7-49b2b3b8b082
Exec   : decomposePar
Date   : Apr 24 2022
Time   : 21:29:33
Host   : "c410-133.stampede2.tacc.utexas.edu"
PID    : 210868
I/O    : uncollated
Case   : /work2/07705/jmj3957/stampede2/COE347FinalProject/diamond_test
nProcs : 1
sigFpe : Enabling floating point exception trapping (FOAM_SIGFPE).
fileModificationChecking : Monitoring run-time modified files using timeStampMaster (fileModificationSkew 10)
allowSystemOperations : Allowing user-supplied system call operations

// * * * * * * * * * * * * * * * * * * * * * * * * * * * * * * * * * * * * * //
Create time



Decomposing mesh region0

Create mesh

Calculating distribution of cells
 Foam::decompositionMethod::New 
{
    numberOfSubdomains 36;
    method          hierarchical;
    simpleCoeffs
    {
        n               ( 6 6 1 );
        delta           0.0002;
    }
    hierarchicalCoeffs
    {
        n               ( 6 6 1 );
        delta           0.0002;
        order           xyz;
    }
}

Selecting decompositionMethod hierarchical

Finished decomposition in 0.01 s

Calculating original mesh data

Distributing cells to processors

Distributing faces to processors

Distributing points to processors

Constructing processor meshes

Processor 0
    Number of cells = 333
    Number of faces shared with processor 1 = 28
    Number of faces shared with processor 6 = 22
    Number of processor patches = 2
    Number of processor faces = 50
    Number of boundary faces = 702

Processor 1
    Number of cells = 333
    Number of faces shared with processor 0 = 28
    Number of faces shared with processor 2 = 27
    Number of faces shared with processor 6 = 1
    Number of faces shared with processor 7 = 17
    Number of faces shared with processor 8 = 5
    Number of processor patches = 5
    Number of processor faces = 78
    Number of boundary faces = 678

Processor 2
    Number of cells = 333
    Number of faces shared with processor 1 = 27
    Number of faces shared with processor 3 = 28
    Number of faces shared with processor 8 = 15
    Number of processor patches = 3
    Number of processor faces = 70
    Number of boundary faces = 678

Processor 3
    Number of cells = 333
    Number of faces shared with processor 2 = 28
    Number of faces shared with processor 4 = 20
    Number of faces shared with processor 8 = 4
    Number of faces shared with processor 9 = 17
    Number of faces shared with processor 10 = 5
    Number of processor patches = 5
    Number of processor faces = 74
    Number of boundary faces = 678

Processor 4
    Number of cells = 333
    Number of faces shared with processor 3 = 20
    Number of faces shared with processor 5 = 14
    Number of faces shared with processor 10 = 18
    Number of faces shared with processor 11 = 5
    Number of processor patches = 4
    Number of processor faces = 57
    Number of boundary faces = 683

Processor 5
    Number of cells = 333
    Number of faces shared with processor 4 = 14
    Number of faces shared with processor 11 = 25
    Number of processor patches = 2
    Number of processor faces = 39
    Number of boundary faces = 703

Processor 6
    Number of cells = 333
    Number of faces shared with processor 0 = 22
    Number of faces shared with processor 1 = 1
    Number of faces shared with processor 7 = 25
    Number of faces shared with processor 12 = 41
    Number of processor patches = 4
    Number of processor faces = 89
    Number of boundary faces = 677

Processor 7
    Number of cells = 333
    Number of faces shared with processor 1 = 17
    Number of faces shared with processor 6 = 25
    Number of faces shared with processor 8 = 17
    Number of faces shared with processor 13 = 27
    Number of faces shared with processor 14 = 6
    Number of processor patches = 5
    Number of processor faces = 92
    Number of boundary faces = 666

Processor 8
    Number of cells = 333
    Number of faces shared with processor 1 = 5
    Number of faces shared with processor 2 = 15
    Number of faces shared with processor 3 = 4
    Number of faces shared with processor 7 = 17
    Number of faces shared with processor 9 = 18
    Number of faces shared with processor 14 = 25
    Number of processor patches = 6
    Number of processor faces = 84
    Number of boundary faces = 666

Processor 9
    Number of cells = 333
    Number of faces shared with processor 3 = 17
    Number of faces shared with processor 8 = 18
    Number of faces shared with processor 10 = 19
    Number of faces shared with processor 14 = 9
    Number of faces shared with processor 15 = 26
    Number of faces shared with processor 16 = 7
    Number of processor patches = 6
    Number of processor faces = 96
    Number of boundary faces = 666

Processor 10
    Number of cells = 333
    Number of faces shared with processor 3 = 5
    Number of faces shared with processor 4 = 18
    Number of faces shared with processor 9 = 19
    Number of faces shared with processor 11 = 11
    Number of faces shared with processor 16 = 38
    Number of faces shared with processor 17 = 5
    Number of processor patches = 6
    Number of processor faces = 96
    Number of boundary faces = 666

Processor 11
    Number of cells = 333
    Number of faces shared with processor 4 = 5
    Number of faces shared with processor 5 = 25
    Number of faces shared with processor 10 = 11
    Number of faces shared with processor 17 = 28
    Number of processor patches = 4
    Number of processor faces = 69
    Number of boundary faces = 679

Processor 12
    Number of cells = 333
    Number of faces shared with processor 6 = 41
    Number of faces shared with processor 13 = 28
    Number of faces shared with processor 18 = 48
    Number of faces shared with processor 19 = 3
    Number of processor patches = 4
    Number of processor faces = 120
    Number of boundary faces = 672

Processor 13
    Number of cells = 333
    Number of faces shared with processor 7 = 27
    Number of faces shared with processor 12 = 28
    Number of faces shared with processor 14 = 12
    Number of faces shared with processor 19 = 3
    Number of processor patches = 4
    Number of processor faces = 70
    Number of boundary faces = 692

Processor 14
    Number of cells = 333
    Number of faces shared with processor 7 = 6
    Number of faces shared with processor 8 = 25
    Number of faces shared with processor 9 = 9
    Number of faces shared with processor 13 = 12
    Number of faces shared with processor 15 = 12
    Number of processor patches = 5
    Number of processor faces = 64
    Number of boundary faces = 696

Processor 15
    Number of cells = 333
    Number of faces shared with processor 9 = 26
    Number of faces shared with processor 14 = 12
    Number of faces shared with processor 16 = 19
    Number of faces shared with processor 21 = 10
    Number of faces shared with processor 22 = 2
    Number of processor patches = 5
    Number of processor faces = 69
    Number of boundary faces = 687

Processor 16
    Number of cells = 333
    Number of faces shared with processor 9 = 7
    Number of faces shared with processor 10 = 38
    Number of faces shared with processor 15 = 19
    Number of faces shared with processor 17 = 8
    Number of faces shared with processor 22 = 44
    Number of processor patches = 5
    Number of processor faces = 116
    Number of boundary faces = 666

Processor 17
    Number of cells = 333
    Number of faces shared with processor 10 = 5
    Number of faces shared with processor 11 = 28
    Number of faces shared with processor 16 = 8
    Number of faces shared with processor 23 = 28
    Number of processor patches = 4
    Number of processor faces = 69
    Number of boundary faces = 679

Processor 18
    Number of cells = 333
    Number of faces shared with processor 12 = 48
    Number of faces shared with processor 19 = 27
    Number of faces shared with processor 24 = 41
    Number of processor patches = 3
    Number of processor faces = 116
    Number of boundary faces = 672

Processor 19
    Number of cells = 333
    Number of faces shared with processor 12 = 3
    Number of faces shared with processor 13 = 3
    Number of faces shared with processor 18 = 27
    Number of faces shared with processor 20 = 10
    Number of faces shared with processor 25 = 27
    Number of processor patches = 5
    Number of processor faces = 70
    Number of boundary faces = 696

Processor 20
    Number of cells = 333
    Number of faces shared with processor 19 = 10
    Number of faces shared with processor 21 = 12
    Number of faces shared with processor 25 = 8
    Number of faces shared with processor 26 = 25
    Number of faces shared with processor 27 = 9
    Number of processor patches = 5
    Number of processor faces = 64
    Number of boundary faces = 696

Processor 21
    Number of cells = 333
    Number of faces shared with processor 15 = 10
    Number of faces shared with processor 20 = 12
    Number of faces shared with processor 22 = 21
    Number of faces shared with processor 27 = 26
    Number of processor patches = 4
    Number of processor faces = 69
    Number of boundary faces = 689

Processor 22
    Number of cells = 333
    Number of faces shared with processor 15 = 2
    Number of faces shared with processor 16 = 44
    Number of faces shared with processor 21 = 21
    Number of faces shared with processor 23 = 8
    Number of faces shared with processor 27 = 7
    Number of faces shared with processor 28 = 38
    Number of processor patches = 6
    Number of processor faces = 120
    Number of boundary faces = 666

Processor 23
    Number of cells = 333
    Number of faces shared with processor 17 = 28
    Number of faces shared with processor 22 = 8
    Number of faces shared with processor 28 = 5
    Number of faces shared with processor 29 = 27
    Number of processor patches = 4
    Number of processor faces = 68
    Number of boundary faces = 680

Processor 24
    Number of cells = 333
    Number of faces shared with processor 18 = 41
    Number of faces shared with processor 25 = 25
    Number of faces shared with processor 30 = 23
    Number of faces shared with processor 31 = 1
    Number of processor patches = 4
    Number of processor faces = 90
    Number of boundary faces = 678

Processor 25
    Number of cells = 333
    Number of faces shared with processor 19 = 27
    Number of faces shared with processor 20 = 8
    Number of faces shared with processor 24 = 25
    Number of faces shared with processor 26 = 17
    Number of faces shared with processor 31 = 17
    Number of processor patches = 5
    Number of processor faces = 94
    Number of boundary faces = 666

Processor 26
    Number of cells = 333
    Number of faces shared with processor 20 = 25
    Number of faces shared with processor 25 = 17
    Number of faces shared with processor 27 = 18
    Number of faces shared with processor 31 = 5
    Number of faces shared with processor 32 = 15
    Number of faces shared with processor 33 = 4
    Number of processor patches = 6
    Number of processor faces = 84
    Number of boundary faces = 666

Processor 27
    Number of cells = 333
    Number of faces shared with processor 20 = 9
    Number of faces shared with processor 21 = 26
    Number of faces shared with processor 22 = 7
    Number of faces shared with processor 26 = 18
    Number of faces shared with processor 28 = 19
    Number of faces shared with processor 33 = 17
    Number of processor patches = 6
    Number of processor faces = 96
    Number of boundary faces = 666

Processor 28
    Number of cells = 333
    Number of faces shared with processor 22 = 38
    Number of faces shared with processor 23 = 5
    Number of faces shared with processor 27 = 19
    Number of faces shared with processor 29 = 9
    Number of faces shared with processor 33 = 5
    Number of faces shared with processor 34 = 18
    Number of processor patches = 6
    Number of processor faces = 94
    Number of boundary faces = 666

Processor 29
    Number of cells = 333
    Number of faces shared with processor 23 = 27
    Number of faces shared with processor 28 = 9
    Number of faces shared with processor 34 = 8
    Number of faces shared with processor 35 = 25
    Number of processor patches = 4
    Number of processor faces = 69
    Number of boundary faces = 679

Processor 30
    Number of cells = 335
    Number of faces shared with processor 24 = 23
    Number of faces shared with processor 31 = 27
    Number of processor patches = 2
    Number of processor faces = 50
    Number of boundary faces = 706

Processor 31
    Number of cells = 335
    Number of faces shared with processor 24 = 1
    Number of faces shared with processor 25 = 17
    Number of faces shared with processor 26 = 5
    Number of faces shared with processor 30 = 27
    Number of faces shared with processor 32 = 27
    Number of processor patches = 5
    Number of processor faces = 77
    Number of boundary faces = 681

Processor 32
    Number of cells = 335
    Number of faces shared with processor 26 = 15
    Number of faces shared with processor 31 = 27
    Number of faces shared with processor 33 = 28
    Number of processor patches = 3
    Number of processor faces = 70
    Number of boundary faces = 682

Processor 33
    Number of cells = 335
    Number of faces shared with processor 26 = 4
    Number of faces shared with processor 27 = 17
    Number of faces shared with processor 28 = 5
    Number of faces shared with processor 32 = 28
    Number of faces shared with processor 34 = 20
    Number of processor patches = 5
    Number of processor faces = 74
    Number of boundary faces = 682

Processor 34
    Number of cells = 335
    Number of faces shared with processor 28 = 18
    Number of faces shared with processor 29 = 8
    Number of faces shared with processor 33 = 20
    Number of faces shared with processor 35 = 13
    Number of processor patches = 4
    Number of processor faces = 59
    Number of boundary faces = 687

Processor 35
    Number of cells = 335
    Number of faces shared with processor 29 = 25
    Number of faces shared with processor 34 = 13
    Number of processor patches = 2
    Number of processor faces = 38
    Number of boundary faces = 708

Number of processor faces = 1402
Max number of cells = 335 (0.5% above average 333.333)
Max number of processor patches = 6 (36.7089% above average 4.38889)
Max number of faces between processors = 120 (54.0656% above average 77.8889)

Time = 0

Processor 0: field transfer
Processor 1: field transfer
Processor 2: field transfer
Processor 3: field transfer
Processor 4: field transfer
Processor 5: field transfer
Processor 6: field transfer
Processor 7: field transfer
Processor 8: field transfer
Processor 9: field transfer
Processor 10: field transfer
Processor 11: field transfer
Processor 12: field transfer
Processor 13: field transfer
Processor 14: field transfer
Processor 15: field transfer
Processor 16: field transfer
Processor 17: field transfer
Processor 18: field transfer
Processor 19: field transfer
Processor 20: field transfer
Processor 21: field transfer
Processor 22: field transfer
Processor 23: field transfer
Processor 24: field transfer
Processor 25: field transfer
Processor 26: field transfer
Processor 27: field transfer
Processor 28: field transfer
Processor 29: field transfer
Processor 30: field transfer
Processor 31: field transfer
Processor 32: field transfer
Processor 33: field transfer
Processor 34: field transfer
Processor 35: field transfer

End

