/*---------------------------------------------------------------------------*\
  =========                 |
  \\      /  F ield         | OpenFOAM: The Open Source CFD Toolbox
   \\    /   O peration     | Website:  https://openfoam.org
    \\  /    A nd           | Version:  7
     \\/     M anipulation  |
\*---------------------------------------------------------------------------*/
Build  : 7-49b2b3b8b082
Exec   : icoFoam
Date   : Apr 14 2022
Time   : 01:35:16
Host   : "c405-034.stampede2.tacc.utexas.edu"
PID    : 169264
I/O    : uncollated
Case   : /work2/07705/jmj3957/stampede2/COE347FinalProject/Simulations/Incompressible/cylinder_test
nProcs : 1
sigFpe : Enabling floating point exception trapping (FOAM_SIGFPE).
fileModificationChecking : Monitoring run-time modified files using timeStampMaster (fileModificationSkew 10)
allowSystemOperations : Allowing user-supplied system call operations

// * * * * * * * * * * * * * * * * * * * * * * * * * * * * * * * * * * * * * //
Create time

Create mesh for time = 0

Reading transportProperties

Reading field p

Reading field U

Reading/calculating face flux field phi


Starting time loop

--> FOAM Warning : 
    From function void Foam::probes::findElements(const Foam::fvMesh &)
    in file probes/probes.C at line 119
    Did not find location (0 0 0) in any cell. Skipping location.
Reading set description:
    line1
    line2
    line3
    line4

forces forces:
--> FOAM Warning : 
    From function Foam::HashSet<int, Foam::Hash<int>> Foam::polyBoundaryMesh::patchSet(const Foam::UList<Foam::wordRe> &, bool, bool) const
    in file meshes/polyMesh/polyBoundaryMesh/polyBoundaryMesh.C at line 804
    Cannot find any patch or group names matching cylinder
    Not including porosity effects
forces forceCoeffs:
--> FOAM Warning : 
    From function Foam::HashSet<int, Foam::Hash<int>> Foam::polyBoundaryMesh::patchSet(const Foam::UList<Foam::wordRe> &, bool, bool) const
    in file meshes/polyMesh/polyBoundaryMesh/polyBoundaryMesh.C at line 804
    Cannot find any patch or group names matching cylinder
    Not including porosity effects
forceCoeffs forceCoeffs:
--> FOAM Warning : 
    From function Foam::HashSet<int, Foam::Hash<int>> Foam::polyBoundaryMesh::patchSet(const Foam::UList<Foam::wordRe> &, bool, bool) const
    in file meshes/polyMesh/polyBoundaryMesh/polyBoundaryMesh.C at line 804
    Cannot find any patch or group names matching cylinder
    Not including porosity effects
Time = 0.0002

Courant Number mean: 0.00197794 max: 0.0225176
smoothSolver:  Solving for Ux, Initial residual = 1, Final residual = 5.32349e-09, No Iterations 5
smoothSolver:  Solving for Uy, Initial residual = 0, Final residual = 0, No Iterations 0
DICPCG:  Solving for p, Initial residual = 1, Final residual = 8.98535e-08, No Iterations 182
time step continuity errors : sum local = 9.16853e-14, global = -6.46246e-16, cumulative = -6.46246e-16
DICPCG:  Solving for p, Initial residual = 0.197289, Final residual = 9.57191e-08, No Iterations 167
time step continuity errors : sum local = 6.36257e-13, global = 1.44692e-15, cumulative = 8.00676e-16
ExecutionTime = 2.54 s  ClockTime = 4 s

forces forces write:
    sum of forces:
        pressure : (0 0 0)
        viscous  : (0 0 0)
        porous   : (0 0 0)
    sum of moments:
        pressure : (0 0 0)
        viscous  : (0 0 0)
        porous   : (0 0 0)

forceCoeffs forceCoeffs write:
    Cm    = 0
    Cd    = 0
    Cl    = 0
    Cl(f) = 0
    Cl(r) = 0

Time = 0.0004

Courant Number mean: 0.0019794 max: 0.020024
smoothSolver:  Solving for Ux, Initial residual = 0.143128, Final residual = 4.86782e-09, No Iterations 4
smoothSolver:  Solving for Uy, Initial residual = 0.328529, Final residual = 1.33931e-08, No Iterations 4
DICPCG:  Solving for p, Initial residual = 0.352774, Final residual = 8.39889e-08, No Iterations 171
time step continuity errors : sum local = 7.12762e-13, global = 7.04787e-15, cumulative = 7.84855e-15
DICPCG:  Solving for p, Initial residual = 0.298936, Final residual = 9.90525e-08, No Iterations 169
time step continuity errors : sum local = 5.38308e-13, global = 3.54506e-16, cumulative = 8.20306e-15
ExecutionTime = 2.82 s  ClockTime = 4 s

forces forces write:
    sum of forces:
        pressure : (0 0 0)
        viscous  : (0 0 0)
        porous   : (0 0 0)
    sum of moments:
        pressure : (0 0 0)
        viscous  : (0 0 0)
        porous   : (0 0 0)

forceCoeffs forceCoeffs write:
    Cm    = 0
    Cd    = 0
    Cl    = 0
    Cl(f) = 0
    Cl(r) = 0

Time = 0.0006

Courant Number mean: 0.0019788 max: 0.0191336
smoothSolver:  Solving for Ux, Initial residual = 0.0255065, Final residual = 3.95564e-08, No Iterations 3
smoothSolver:  Solving for Uy, Initial residual = 0.128607, Final residual = 4.55397e-09, No Iterations 4
DICPCG:  Solving for p, Initial residual = 0.898743, Final residual = 8.85675e-08, No Iterations 168
time step continuity errors : sum local = 2.5975e-13, global = 1.35691e-15, cumulative = 9.55997e-15
DICPCG:  Solving for p, Initial residual = 0.201137, Final residual = 9.66071e-08, No Iterations 162
time step continuity errors : sum local = 1.9056e-13, global = -6.34069e-16, cumulative = 8.9259e-15
ExecutionTime = 3.08 s  ClockTime = 4 s

forces forces write:
    sum of forces:
        pressure : (0 0 0)
        viscous  : (0 0 0)
        porous   : (0 0 0)
    sum of moments:
        pressure : (0 0 0)
        viscous  : (0 0 0)
        porous   : (0 0 0)

forceCoeffs forceCoeffs write:
    Cm    = 0
    Cd    = 0
    Cl    = 0
    Cl(f) = 0
    Cl(r) = 0

Time = 0.0008

Courant Number mean: 0.00197827 max: 0.0188456
smoothSolver:  Solving for Ux, Initial residual = 0.0134548, Final residual = 2.17791e-08, No Iterations 3
smoothSolver:  Solving for Uy, Initial residual = 0.0486702, Final residual = 2.86107e-08, No Iterations 3
DICPCG:  Solving for p, Initial residual = 0.798021, Final residual = 8.09039e-08, No Iterations 168
time step continuity errors : sum local = 1.22273e-13, global = -6.59041e-16, cumulative = 8.26686e-15
DICPCG:  Solving for p, Initial residual = 0.0961548, Final residual = 8.65425e-08, No Iterations 159
time step continuity errors : sum local = 1.09328e-13, global = 7.42604e-16, cumulative = 9.00946e-15
ExecutionTime = 3.34 s  ClockTime = 4 s

forces forces write:
    sum of forces:
        pressure : (0 0 0)
        viscous  : (0 0 0)
        porous   : (0 0 0)
    sum of moments:
        pressure : (0 0 0)
        viscous  : (0 0 0)
        porous   : (0 0 0)

forceCoeffs forceCoeffs write:
    Cm    = 0
    Cd    = 0
    Cl    = 0
    Cl(f) = 0
    Cl(r) = 0

Time = 0.001

Courant Number mean: 0.00197788 max: 0.0187006
smoothSolver:  Solving for Ux, Initial residual = 0.00951484, Final residual = 2.61894e-08, No Iterations 3
smoothSolver:  Solving for Uy, Initial residual = 0.0271309, Final residual = 1.37257e-08, No Iterations 3
DICPCG:  Solving for p, Initial residual = 0.73991, Final residual = 8.97157e-08, No Iterations 166
time step continuity errors : sum local = 8.90896e-14, global = -7.12774e-17, cumulative = 8.93818e-15
DICPCG:  Solving for p, Initial residual = 0.0848598, Final residual = 9.33103e-08, No Iterations 158
time step continuity errors : sum local = 6.93664e-14, global = 1.7029e-16, cumulative = 9.10847e-15
ExecutionTime = 3.59 s  ClockTime = 5 s

forces forces write:
    sum of forces:
        pressure : (0 0 0)
        viscous  : (0 0 0)
        porous   : (0 0 0)
    sum of moments:
        pressure : (0 0 0)
        viscous  : (0 0 0)
        porous   : (0 0 0)

forceCoeffs forceCoeffs write:
    Cm    = 0
    Cd    = 0
    Cl    = 0
    Cl(f) = 0
    Cl(r) = 0

Time = 0.0012

Courant Number mean: 0.00197752 max: 0.0185953
smoothSolver:  Solving for Ux, Initial residual = 0.00815278, Final residual = 2.62111e-08, No Iterations 3
smoothSolver:  Solving for Uy, Initial residual = 0.0158675, Final residual = 8.08504e-09, No Iterations 3
DICPCG:  Solving for p, Initial residual = 0.677861, Final residual = 8.45046e-08, No Iterations 166
time step continuity errors : sum local = 5.36048e-14, global = 2.39453e-16, cumulative = 9.34793e-15
DICPCG:  Solving for p, Initial residual = 0.0602685, Final residual = 9.87209e-08, No Iterations 158
time step continuity errors : sum local = 5.47395e-14, global = -5.04622e-16, cumulative = 8.8433e-15
ExecutionTime = 3.85 s  ClockTime = 5 s

forces forces write:
    sum of forces:
        pressure : (0 0 0)
        viscous  : (0 0 0)
        porous   : (0 0 0)
    sum of moments:
        pressure : (0 0 0)
        viscous  : (0 0 0)
        porous   : (0 0 0)

forceCoeffs forceCoeffs write:
    Cm    = 0
    Cd    = 0
    Cl    = 0
    Cl(f) = 0
    Cl(r) = 0

Time = 0.0014

Courant Number mean: 0.00197724 max: 0.0184701
smoothSolver:  Solving for Ux, Initial residual = 0.00626335, Final residual = 2.92338e-08, No Iterations 3
smoothSolver:  Solving for Uy, Initial residual = 0.00929359, Final residual = 7.62913e-09, No Iterations 3
DICPCG:  Solving for p, Initial residual = 0.497737, Final residual = 9.55154e-08, No Iterations 163
time step continuity errors : sum local = 3.91833e-14, global = 2.35482e-16, cumulative = 9.07878e-15
DICPCG:  Solving for p, Initial residual = 0.0546784, Final residual = 7.98944e-08, No Iterations 153
time step continuity errors : sum local = 2.14972e-14, global = -4.0856e-16, cumulative = 8.67022e-15
ExecutionTime = 4.1 s  ClockTime = 5 s

forces forces write:
    sum of forces:
        pressure : (0 0 0)
        viscous  : (0 0 0)
        porous   : (0 0 0)
    sum of moments:
        pressure : (0 0 0)
        viscous  : (0 0 0)
        porous   : (0 0 0)

forceCoeffs forceCoeffs write:
    Cm    = 0
    Cd    = 0
    Cl    = 0
    Cl(f) = 0
    Cl(r) = 0

Time = 0.0016

Courant Number mean: 0.00197697 max: 0.0183365
smoothSolver:  Solving for Ux, Initial residual = 0.00560808, Final residual = 2.99176e-08, No Iterations 3
smoothSolver:  Solving for Uy, Initial residual = 0.00538069, Final residual = 7.19392e-09, No Iterations 3
DICPCG:  Solving for p, Initial residual = 0.248815, Final residual = 7.54813e-08, No Iterations 162
time step continuity errors : sum local = 1.7204e-14, global = -1.10402e-16, cumulative = 8.55982e-15
DICPCG:  Solving for p, Initial residual = 0.0254118, Final residual = 8.90859e-08, No Iterations 146
time step continuity errors : sum local = 1.69247e-14, global = -2.72147e-16, cumulative = 8.28768e-15
ExecutionTime = 4.34 s  ClockTime = 5 s

forces forces write:
    sum of forces:
        pressure : (0 0 0)
        viscous  : (0 0 0)
        porous   : (0 0 0)
    sum of moments:
        pressure : (0 0 0)
        viscous  : (0 0 0)
        porous   : (0 0 0)

forceCoeffs forceCoeffs write:
    Cm    = 0
    Cd    = 0
    Cl    = 0
    Cl(f) = 0
    Cl(r) = 0

Time = 0.0018

Courant Number mean: 0.00197674 max: 0.0182646
smoothSolver:  Solving for Ux, Initial residual = 0.00522754, Final residual = 3.02741e-08, No Iterations 3
smoothSolver:  Solving for Uy, Initial residual = 0.00397615, Final residual = 7.03042e-09, No Iterations 3
DICPCG:  Solving for p, Initial residual = 0.0783068, Final residual = 8.99059e-08, No Iterations 156
time step continuity errors : sum local = 1.60538e-14, global = -4.87547e-17, cumulative = 8.23892e-15
DICPCG:  Solving for p, Initial residual = 0.0114825, Final residual = 9.29031e-08, No Iterations 142
time step continuity errors : sum local = 1.56238e-14, global = 4.27811e-17, cumulative = 8.2817e-15
ExecutionTime = 4.58 s  ClockTime = 6 s

forces forces write:
    sum of forces:
        pressure : (0 0 0)
        viscous  : (0 0 0)
        porous   : (0 0 0)
    sum of moments:
        pressure : (0 0 0)
        viscous  : (0 0 0)
        porous   : (0 0 0)

forceCoeffs forceCoeffs write:
    Cm    = 0
    Cd    = 0
    Cl    = 0
    Cl(f) = 0
    Cl(r) = 0

Time = 0.002

Courant Number mean: 0.00197653 max: 0.0182213
smoothSolver:  Solving for Ux, Initial residual = 0.00504924, Final residual = 2.95387e-08, No Iterations 3
smoothSolver:  Solving for Uy, Initial residual = 0.00359313, Final residual = 6.84544e-09, No Iterations 3
DICPCG:  Solving for p, Initial residual = 0.0562323, Final residual = 9.30978e-08, No Iterations 153
time step continuity errors : sum local = 1.5151e-14, global = -4.78278e-18, cumulative = 8.27692e-15
DICPCG:  Solving for p, Initial residual = 0.00878463, Final residual = 8.77143e-08, No Iterations 139
time step continuity errors : sum local = 1.3699e-14, global = -8.05653e-17, cumulative = 8.19635e-15
ExecutionTime = 4.8 s  ClockTime = 6 s

forces forces write:
    sum of forces:
        pressure : (0 0 0)
        viscous  : (0 0 0)
        porous   : (0 0 0)
    sum of moments:
        pressure : (0 0 0)
        viscous  : (0 0 0)
        porous   : (0 0 0)

forceCoeffs forceCoeffs write:
    Cm    = 0
    Cd    = 0
    Cl    = 0
    Cl(f) = 0
    Cl(r) = 0

Time = 0.0022

Courant Number mean: 0.00197633 max: 0.0181693
smoothSolver:  Solving for Ux, Initial residual = 0.00461946, Final residual = 2.71141e-08, No Iterations 3
smoothSolver:  Solving for Uy, Initial residual = 0.00335306, Final residual = 6.62829e-09, No Iterations 3
DICPCG:  Solving for p, Initial residual = 0.0462406, Final residual = 9.70366e-08, No Iterations 153
time step continuity errors : sum local = 1.47438e-14, global = 1.76044e-16, cumulative = 8.3724e-15
DICPCG:  Solving for p, Initial residual = 0.00711319, Final residual = 9.37288e-08, No Iterations 125
time step continuity errors : sum local = 1.37558e-14, global = -1.19766e-16, cumulative = 8.25263e-15
ExecutionTime = 5.03 s  ClockTime = 6 s

forces forces write:
    sum of forces:
        pressure : (0 0 0)
        viscous  : (0 0 0)
        porous   : (0 0 0)
    sum of moments:
        pressure : (0 0 0)
        viscous  : (0 0 0)
        porous   : (0 0 0)

forceCoeffs forceCoeffs write:
    Cm    = 0
    Cd    = 0
    Cl    = 0
    Cl(f) = 0
    Cl(r) = 0

Time = 0.0024

Courant Number mean: 0.00197614 max: 0.0181091
smoothSolver:  Solving for Ux, Initial residual = 0.00397002, Final residual = 2.32661e-08, No Iterations 3
smoothSolver:  Solving for Uy, Initial residual = 0.00318571, Final residual = 6.38827e-09, No Iterations 3
DICPCG:  Solving for p, Initial residual = 0.0394538, Final residual = 9.76487e-08, No Iterations 138
time step continuity errors : sum local = 1.39958e-14, global = 6.73457e-17, cumulative = 8.31998e-15
DICPCG:  Solving for p, Initial residual = 0.00587364, Final residual = 7.85268e-08, No Iterations 126
time step continuity errors : sum local = 1.09195e-14, global = -8.97576e-17, cumulative = 8.23022e-15
ExecutionTime = 5.24 s  ClockTime = 6 s

forces forces write:
    sum of forces:
        pressure : (0 0 0)
        viscous  : (0 0 0)
        porous   : (0 0 0)
    sum of moments:
        pressure : (0 0 0)
        viscous  : (0 0 0)
        porous   : (0 0 0)

forceCoeffs forceCoeffs write:
    Cm    = 0
    Cd    = 0
    Cl    = 0
    Cl(f) = 0
    Cl(r) = 0

Time = 0.0026

Courant Number mean: 0.00197597 max: 0.0180412
smoothSolver:  Solving for Ux, Initial residual = 0.00340913, Final residual = 1.98821e-08, No Iterations 3
smoothSolver:  Solving for Uy, Initial residual = 0.00306081, Final residual = 6.14466e-09, No Iterations 3
DICPCG:  Solving for p, Initial residual = 0.0338714, Final residual = 9.29502e-08, No Iterations 147
time step continuity errors : sum local = 1.2648e-14, global = -2.24739e-17, cumulative = 8.20775e-15
DICPCG:  Solving for p, Initial residual = 0.00495033, Final residual = 9.05295e-08, No Iterations 126
time step continuity errors : sum local = 1.19796e-14, global = -1.07305e-16, cumulative = 8.10044e-15
ExecutionTime = 5.46 s  ClockTime = 7 s

forces forces write:
    sum of forces:
        pressure : (0 0 0)
        viscous  : (0 0 0)
        porous   : (0 0 0)
    sum of moments:
        pressure : (0 0 0)
        viscous  : (0 0 0)
        porous   : (0 0 0)

forceCoeffs forceCoeffs write:
    Cm    = 0
    Cd    = 0
    Cl    = 0
    Cl(f) = 0
    Cl(r) = 0

Time = 0.0028

Courant Number mean: 0.0019758 max: 0.0179665
smoothSolver:  Solving for Ux, Initial residual = 0.00297073, Final residual = 1.71926e-08, No Iterations 3
smoothSolver:  Solving for Uy, Initial residual = 0.00296023, Final residual = 5.90557e-09, No Iterations 3
DICPCG:  Solving for p, Initial residual = 0.029553, Final residual = 8.11906e-08, No Iterations 148
time step continuity errors : sum local = 1.05413e-14, global = 2.74092e-17, cumulative = 8.12785e-15
DICPCG:  Solving for p, Initial residual = 0.00424988, Final residual = 9.70576e-08, No Iterations 126
time step continuity errors : sum local = 1.22903e-14, global = -4.81801e-17, cumulative = 8.07967e-15
ExecutionTime = 5.68 s  ClockTime = 7 s

forces forces write:
    sum of forces:
        pressure : (0 0 0)
        viscous  : (0 0 0)
        porous   : (0 0 0)
    sum of moments:
        pressure : (0 0 0)
        viscous  : (0 0 0)
        porous   : (0 0 0)

forceCoeffs forceCoeffs write:
    Cm    = 0
    Cd    = 0
    Cl    = 0
    Cl(f) = 0
    Cl(r) = 0

Time = 0.003

Courant Number mean: 0.00197564 max: 0.0178857
smoothSolver:  Solving for Ux, Initial residual = 0.00262597, Final residual = 1.50545e-08, No Iterations 3
smoothSolver:  Solving for Uy, Initial residual = 0.00287439, Final residual = 5.67348e-09, No Iterations 3
DICPCG:  Solving for p, Initial residual = 0.0262621, Final residual = 7.44338e-08, No Iterations 148
time step continuity errors : sum local = 9.26575e-15, global = 1.40853e-18, cumulative = 8.08108e-15
DICPCG:  Solving for p, Initial residual = 0.00370868, Final residual = 9.57714e-08, No Iterations 131
time step continuity errors : sum local = 1.1652e-14, global = 6.87719e-17, cumulative = 8.14985e-15
ExecutionTime = 5.91 s  ClockTime = 7 s

forces forces write:
    sum of forces:
        pressure : (0 0 0)
        viscous  : (0 0 0)
        porous   : (0 0 0)
    sum of moments:
        pressure : (0 0 0)
        viscous  : (0 0 0)
        porous   : (0 0 0)

forceCoeffs forceCoeffs write:
    Cm    = 0
    Cd    = 0
    Cl    = 0
    Cl(f) = 0
    Cl(r) = 0

Time = 0.0032

Courant Number mean: 0.00197549 max: 0.0177995
smoothSolver:  Solving for Ux, Initial residual = 0.00235041, Final residual = 1.33353e-08, No Iterations 3
smoothSolver:  Solving for Uy, Initial residual = 0.00279765, Final residual = 5.45026e-09, No Iterations 3
DICPCG:  Solving for p, Initial residual = 0.0236718, Final residual = 9.63014e-08, No Iterations 147
time step continuity errors : sum local = 1.15368e-14, global = -4.31067e-17, cumulative = 8.10674e-15
DICPCG:  Solving for p, Initial residual = 0.00328593, Final residual = 9.641e-08, No Iterations 136
time step continuity errors : sum local = 1.13077e-14, global = -5.91888e-17, cumulative = 8.04755e-15
ExecutionTime = 6.13 s  ClockTime = 7 s

forces forces write:
    sum of forces:
        pressure : (0 0 0)
        viscous  : (0 0 0)
        porous   : (0 0 0)
    sum of moments:
        pressure : (0 0 0)
        viscous  : (0 0 0)
        porous   : (0 0 0)

forceCoeffs forceCoeffs write:
    Cm    = 0
    Cd    = 0
    Cl    = 0
    Cl(f) = 0
    Cl(r) = 0

Time = 0.0034

Courant Number mean: 0.00197535 max: 0.0177512
smoothSolver:  Solving for Ux, Initial residual = 0.00212573, Final residual = 1.19323e-08, No Iterations 3
smoothSolver:  Solving for Uy, Initial residual = 0.00272695, Final residual = 5.23846e-09, No Iterations 3
DICPCG:  Solving for p, Initial residual = 0.021859, Final residual = 7.92922e-08, No Iterations 147
time step continuity errors : sum local = 9.16434e-15, global = -2.18751e-17, cumulative = 8.02568e-15
DICPCG:  Solving for p, Initial residual = 0.00295203, Final residual = 8.72676e-08, No Iterations 137
time step continuity errors : sum local = 9.88271e-15, global = -6.5225e-17, cumulative = 7.96045e-15
ExecutionTime = 6.35 s  ClockTime = 7 s

forces forces write:
    sum of forces:
        pressure : (0 0 0)
        viscous  : (0 0 0)
        porous   : (0 0 0)
    sum of moments:
        pressure : (0 0 0)
        viscous  : (0 0 0)
        porous   : (0 0 0)

forceCoeffs forceCoeffs write:
    Cm    = 0
    Cd    = 0
    Cl    = 0
    Cl(f) = 0
    Cl(r) = 0

Time = 0.0036

Courant Number mean: 0.0019752 max: 0.0177164
smoothSolver:  Solving for Ux, Initial residual = 0.00193999, Final residual = 1.0765e-08, No Iterations 3
smoothSolver:  Solving for Uy, Initial residual = 0.00266079, Final residual = 5.03704e-09, No Iterations 3
DICPCG:  Solving for p, Initial residual = 0.0198865, Final residual = 8.43042e-08, No Iterations 147
time step continuity errors : sum local = 9.42088e-15, global = -9.74971e-18, cumulative = 7.9507e-15
DICPCG:  Solving for p, Initial residual = 0.00268327, Final residual = 9.35242e-08, No Iterations 138
time step continuity errors : sum local = 1.02555e-14, global = -1.4463e-17, cumulative = 7.93624e-15
ExecutionTime = 6.59 s  ClockTime = 8 s

forces forces write:
    sum of forces:
        pressure : (0 0 0)
        viscous  : (0 0 0)
        porous   : (0 0 0)
    sum of moments:
        pressure : (0 0 0)
        viscous  : (0 0 0)
        porous   : (0 0 0)

forceCoeffs forceCoeffs write:
    Cm    = 0
    Cd    = 0
    Cl    = 0
    Cl(f) = 0
    Cl(r) = 0

Time = 0.0038

Courant Number mean: 0.00197507 max: 0.0176779
smoothSolver:  Solving for Ux, Initial residual = 0.00178435, Final residual = 9.78598e-09, No Iterations 3
smoothSolver:  Solving for Uy, Initial residual = 0.0025984, Final residual = 4.84782e-09, No Iterations 3
DICPCG:  Solving for p, Initial residual = 0.0181388, Final residual = 8.21486e-08, No Iterations 147
time step continuity errors : sum local = 8.89893e-15, global = -5.00064e-18, cumulative = 7.93124e-15
DICPCG:  Solving for p, Initial residual = 0.00243958, Final residual = 9.29574e-08, No Iterations 139
time step continuity errors : sum local = 9.8934e-15, global = 4.34246e-17, cumulative = 7.97467e-15
ExecutionTime = 6.82 s  ClockTime = 8 s

forces forces write:
    sum of forces:
        pressure : (0 0 0)
        viscous  : (0 0 0)
        porous   : (0 0 0)
    sum of moments:
        pressure : (0 0 0)
        viscous  : (0 0 0)
        porous   : (0 0 0)

forceCoeffs forceCoeffs write:
    Cm    = 0
    Cd    = 0
    Cl    = 0
    Cl(f) = 0
    Cl(r) = 0

Time = 0.004

Courant Number mean: 0.00197494 max: 0.0176359
smoothSolver:  Solving for Ux, Initial residual = 0.00165183, Final residual = 8.95351e-09, No Iterations 3
smoothSolver:  Solving for Uy, Initial residual = 0.00254092, Final residual = 4.66876e-09, No Iterations 3
DICPCG:  Solving for p, Initial residual = 0.0169898, Final residual = 8.14528e-08, No Iterations 147
time step continuity errors : sum local = 8.57218e-15, global = -3.31917e-18, cumulative = 7.97135e-15
DICPCG:  Solving for p, Initial residual = 0.00224418, Final residual = 9.40516e-08, No Iterations 139
time step continuity errors : sum local = 9.73461e-15, global = 4.45239e-17, cumulative = 8.01587e-15
ExecutionTime = 7.04 s  ClockTime = 8 s

forces forces write:
    sum of forces:
        pressure : (0 0 0)
        viscous  : (0 0 0)
        porous   : (0 0 0)
    sum of moments:
        pressure : (0 0 0)
        viscous  : (0 0 0)
        porous   : (0 0 0)

forceCoeffs forceCoeffs write:
    Cm    = 0
    Cd    = 0
    Cl    = 0
    Cl(f) = 0
    Cl(r) = 0

Time = 0.0042

Courant Number mean: 0.00197481 max: 0.0175909
smoothSolver:  Solving for Ux, Initial residual = 0.0015374, Final residual = 8.23829e-09, No Iterations 3
smoothSolver:  Solving for Uy, Initial residual = 0.00248581, Final residual = 4.49892e-09, No Iterations 3
DICPCG:  Solving for p, Initial residual = 0.0162224, Final residual = 9.7166e-08, No Iterations 146
time step continuity errors : sum local = 9.9498e-15, global = -4.81999e-17, cumulative = 7.96767e-15
DICPCG:  Solving for p, Initial residual = 0.00208277, Final residual = 9.93614e-08, No Iterations 139
time step continuity errors : sum local = 1.0012e-14, global = 4.36672e-17, cumulative = 8.01134e-15
ExecutionTime = 7.27 s  ClockTime = 8 s

forces forces write:
    sum of forces:
        pressure : (0 0 0)
        viscous  : (0 0 0)
        porous   : (0 0 0)
    sum of moments:
        pressure : (0 0 0)
        viscous  : (0 0 0)
        porous   : (0 0 0)

forceCoeffs forceCoeffs write:
    Cm    = 0
    Cd    = 0
    Cl    = 0
    Cl(f) = 0
    Cl(r) = 0

Time = 0.0044

Courant Number mean: 0.00197469 max: 0.017543
smoothSolver:  Solving for Ux, Initial residual = 0.00143678, Final residual = 7.61553e-09, No Iterations 3
smoothSolver:  Solving for Uy, Initial residual = 0.00243267, Final residual = 4.33896e-09, No Iterations 3
DICPCG:  Solving for p, Initial residual = 0.0150926, Final residual = 9.08682e-08, No Iterations 146
time step continuity errors : sum local = 9.06527e-15, global = -3.98926e-17, cumulative = 7.97145e-15
DICPCG:  Solving for p, Initial residual = 0.0019563, Final residual = 9.86304e-08, No Iterations 138
time step continuity errors : sum local = 9.69075e-15, global = 1.24093e-18, cumulative = 7.97269e-15
ExecutionTime = 7.51 s  ClockTime = 9 s

forces forces write:
    sum of forces:
        pressure : (0 0 0)
        viscous  : (0 0 0)
        porous   : (0 0 0)
    sum of moments:
        pressure : (0 0 0)
        viscous  : (0 0 0)
        porous   : (0 0 0)

forceCoeffs forceCoeffs write:
    Cm    = 0
    Cd    = 0
    Cl    = 0
    Cl(f) = 0
    Cl(r) = 0

Time = 0.0046

Courant Number mean: 0.00197457 max: 0.0174925
smoothSolver:  Solving for Ux, Initial residual = 0.00134783, Final residual = 7.07007e-09, No Iterations 3
smoothSolver:  Solving for Uy, Initial residual = 0.00238086, Final residual = 4.18886e-09, No Iterations 3
DICPCG:  Solving for p, Initial residual = 0.0138952, Final residual = 8.89224e-08, No Iterations 146
time step continuity errors : sum local = 8.65627e-15, global = -3.14301e-17, cumulative = 7.94126e-15
DICPCG:  Solving for p, Initial residual = 0.00181133, Final residual = 9.283e-08, No Iterations 139
time step continuity errors : sum local = 8.90684e-15, global = 5.8125e-17, cumulative = 7.99938e-15
ExecutionTime = 7.74 s  ClockTime = 9 s

forces forces write:
    sum of forces:
        pressure : (0 0 0)
        viscous  : (0 0 0)
        porous   : (0 0 0)
    sum of moments:
        pressure : (0 0 0)
        viscous  : (0 0 0)
        porous   : (0 0 0)

forceCoeffs forceCoeffs write:
    Cm    = 0
    Cd    = 0
    Cl    = 0
    Cl(f) = 0
    Cl(r) = 0

Time = 0.0048

Courant Number mean: 0.00197445 max: 0.0174398
smoothSolver:  Solving for Ux, Initial residual = 0.0012688, Final residual = 6.58941e-09, No Iterations 3
smoothSolver:  Solving for Uy, Initial residual = 0.00233073, Final residual = 4.04671e-09, No Iterations 3
DICPCG:  Solving for p, Initial residual = 0.0130893, Final residual = 9.99943e-08, No Iterations 145
time step continuity errors : sum local = 9.51179e-15, global = -3.05571e-17, cumulative = 7.96882e-15
DICPCG:  Solving for p, Initial residual = 0.00171607, Final residual = 9.45147e-08, No Iterations 139
time step continuity errors : sum local = 8.86676e-15, global = 4.32654e-17, cumulative = 8.01209e-15
ExecutionTime = 7.97 s  ClockTime = 9 s

forces forces write:
    sum of forces:
        pressure : (0 0 0)
        viscous  : (0 0 0)
        porous   : (0 0 0)
    sum of moments:
        pressure : (0 0 0)
        viscous  : (0 0 0)
        porous   : (0 0 0)

forceCoeffs forceCoeffs write:
    Cm    = 0
    Cd    = 0
    Cl    = 0
    Cl(f) = 0
    Cl(r) = 0

Time = 0.005

Courant Number mean: 0.00197434 max: 0.017385
smoothSolver:  Solving for Ux, Initial residual = 0.00119818, Final residual = 6.1631e-09, No Iterations 3
smoothSolver:  Solving for Uy, Initial residual = 0.00228205, Final residual = 3.91272e-09, No Iterations 3
DICPCG:  Solving for p, Initial residual = 0.0122591, Final residual = 9.84291e-08, No Iterations 145
time step continuity errors : sum local = 9.15941e-15, global = -2.6448e-17, cumulative = 7.98564e-15
DICPCG:  Solving for p, Initial residual = 0.00160527, Final residual = 9.59154e-08, No Iterations 138
time step continuity errors : sum local = 8.80779e-15, global = 7.90754e-18, cumulative = 7.99355e-15
ExecutionTime = 8.2 s  ClockTime = 9 s

forces forces write:
    sum of forces:
        pressure : (0 0 0)
        viscous  : (0 0 0)
        porous   : (0 0 0)
    sum of moments:
        pressure : (0 0 0)
        viscous  : (0 0 0)
        porous   : (0 0 0)

forceCoeffs forceCoeffs write:
    Cm    = 0
    Cd    = 0
    Cl    = 0
    Cl(f) = 0
    Cl(r) = 0

Time = 0.0052

Courant Number mean: 0.00197423 max: 0.0173284
smoothSolver:  Solving for Ux, Initial residual = 0.00113477, Final residual = 5.78242e-09, No Iterations 3
smoothSolver:  Solving for Uy, Initial residual = 0.00223481, Final residual = 3.78668e-09, No Iterations 3
DICPCG:  Solving for p, Initial residual = 0.0115901, Final residual = 9.55198e-08, No Iterations 145
time step continuity errors : sum local = 8.7054e-15, global = -2.18263e-17, cumulative = 7.97172e-15
DICPCG:  Solving for p, Initial residual = 0.00151784, Final residual = 9.42148e-08, No Iterations 138
time step continuity errors : sum local = 8.47854e-15, global = 5.85903e-19, cumulative = 7.97231e-15
ExecutionTime = 8.43 s  ClockTime = 10 s

forces forces write:
    sum of forces:
        pressure : (0 0 0)
        viscous  : (0 0 0)
        porous   : (0 0 0)
    sum of moments:
        pressure : (0 0 0)
        viscous  : (0 0 0)
        porous   : (0 0 0)

forceCoeffs forceCoeffs write:
    Cm    = 0
    Cd    = 0
    Cl    = 0
    Cl(f) = 0
    Cl(r) = 0

Time = 0.0054

Courant Number mean: 0.00197412 max: 0.0172702
smoothSolver:  Solving for Ux, Initial residual = 0.0010775, Final residual = 5.44081e-09, No Iterations 3
smoothSolver:  Solving for Uy, Initial residual = 0.00218918, Final residual = 3.66764e-09, No Iterations 3
DICPCG:  Solving for p, Initial residual = 0.011014, Final residual = 9.31886e-08, No Iterations 145
time step continuity errors : sum local = 8.32586e-15, global = -1.91412e-17, cumulative = 7.95317e-15
DICPCG:  Solving for p, Initial residual = 0.00144453, Final residual = 9.16228e-08, No Iterations 138
time step continuity errors : sum local = 8.08627e-15, global = 3.94039e-18, cumulative = 7.95711e-15
ExecutionTime = 8.65 s  ClockTime = 10 s

forces forces write:
    sum of forces:
        pressure : (0 0 0)
        viscous  : (0 0 0)
        porous   : (0 0 0)
    sum of moments:
        pressure : (0 0 0)
        viscous  : (0 0 0)
        porous   : (0 0 0)

forceCoeffs forceCoeffs write:
    Cm    = 0
    Cd    = 0
    Cl    = 0
    Cl(f) = 0
    Cl(r) = 0

Time = 0.0056

Courant Number mean: 0.00197401 max: 0.0172106
smoothSolver:  Solving for Ux, Initial residual = 0.00102548, Final residual = 5.13266e-09, No Iterations 3
smoothSolver:  Solving for Uy, Initial residual = 0.00214512, Final residual = 3.55563e-09, No Iterations 3
DICPCG:  Solving for p, Initial residual = 0.0107267, Final residual = 9.61843e-08, No Iterations 145
time step continuity errors : sum local = 8.42896e-15, global = -1.85422e-17, cumulative = 7.93857e-15
DICPCG:  Solving for p, Initial residual = 0.0013951, Final residual = 8.76398e-08, No Iterations 138
time step continuity errors : sum local = 7.58804e-15, global = -1.52544e-18, cumulative = 7.93704e-15
ExecutionTime = 8.89 s  ClockTime = 10 s

forces forces write:
    sum of forces:
        pressure : (0 0 0)
        viscous  : (0 0 0)
        porous   : (0 0 0)
    sum of moments:
        pressure : (0 0 0)
        viscous  : (0 0 0)
        porous   : (0 0 0)

forceCoeffs forceCoeffs write:
    Cm    = 0
    Cd    = 0
    Cl    = 0
    Cl(f) = 0
    Cl(r) = 0

Time = 0.0058

Courant Number mean: 0.00197391 max: 0.0171627
smoothSolver:  Solving for Ux, Initial residual = 0.000977901, Final residual = 4.85266e-09, No Iterations 3
smoothSolver:  Solving for Uy, Initial residual = 0.00210262, Final residual = 3.44973e-09, No Iterations 3
DICPCG:  Solving for p, Initial residual = 0.0100732, Final residual = 8.70587e-08, No Iterations 146
time step continuity errors : sum local = 7.48961e-15, global = -3.24256e-17, cumulative = 7.90461e-15
DICPCG:  Solving for p, Initial residual = 0.00131985, Final residual = 8.80029e-08, No Iterations 138
time step continuity errors : sum local = 7.48592e-15, global = -6.66809e-18, cumulative = 7.89795e-15
ExecutionTime = 9.12 s  ClockTime = 10 s

forces forces write:
    sum of forces:
        pressure : (0 0 0)
        viscous  : (0 0 0)
        porous   : (0 0 0)
    sum of moments:
        pressure : (0 0 0)
        viscous  : (0 0 0)
        porous   : (0 0 0)

forceCoeffs forceCoeffs write:
    Cm    = 0
    Cd    = 0
    Cl    = 0
    Cl(f) = 0
    Cl(r) = 0

Time = 0.006

Courant Number mean: 0.00197381 max: 0.0171344
smoothSolver:  Solving for Ux, Initial residual = 0.000934263, Final residual = 4.59778e-09, No Iterations 3
smoothSolver:  Solving for Uy, Initial residual = 0.00206161, Final residual = 3.34886e-09, No Iterations 3
DICPCG:  Solving for p, Initial residual = 0.00965106, Final residual = 9.7127e-08, No Iterations 145
time step continuity errors : sum local = 8.21244e-15, global = -3.59538e-17, cumulative = 7.86199e-15
DICPCG:  Solving for p, Initial residual = 0.00125852, Final residual = 9.67895e-08, No Iterations 137
time step continuity errors : sum local = 8.09581e-15, global = -1.90068e-17, cumulative = 7.84299e-15
ExecutionTime = 9.35 s  ClockTime = 10 s

forces forces write:
    sum of forces:
        pressure : (0 0 0)
        viscous  : (0 0 0)
        porous   : (0 0 0)
    sum of moments:
        pressure : (0 0 0)
        viscous  : (0 0 0)
        porous   : (0 0 0)

forceCoeffs forceCoeffs write:
    Cm    = 0
    Cd    = 0
    Cl    = 0
    Cl(f) = 0
    Cl(r) = 0

Time = 0.0062

Courant Number mean: 0.00197371 max: 0.0171046
smoothSolver:  Solving for Ux, Initial residual = 0.00089407, Final residual = 4.36481e-09, No Iterations 3
smoothSolver:  Solving for Uy, Initial residual = 0.00202205, Final residual = 3.25306e-09, No Iterations 3
DICPCG:  Solving for p, Initial residual = 0.00937331, Final residual = 9.21242e-08, No Iterations 145
time step continuity errors : sum local = 7.66008e-15, global = -3.46944e-17, cumulative = 7.80829e-15
DICPCG:  Solving for p, Initial residual = 0.00121079, Final residual = 9.73477e-08, No Iterations 137
time step continuity errors : sum local = 8.00863e-15, global = -1.22454e-17, cumulative = 7.79605e-15
ExecutionTime = 9.58 s  ClockTime = 11 s

forces forces write:
    sum of forces:
        pressure : (0 0 0)
        viscous  : (0 0 0)
        porous   : (0 0 0)
    sum of moments:
        pressure : (0 0 0)
        viscous  : (0 0 0)
        porous   : (0 0 0)

forceCoeffs forceCoeffs write:
    Cm    = 0
    Cd    = 0
    Cl    = 0
    Cl(f) = 0
    Cl(r) = 0

Time = 0.0064

Courant Number mean: 0.00197361 max: 0.0170736
smoothSolver:  Solving for Ux, Initial residual = 0.000856897, Final residual = 4.15104e-09, No Iterations 3
smoothSolver:  Solving for Uy, Initial residual = 0.00198409, Final residual = 3.16187e-09, No Iterations 3
DICPCG:  Solving for p, Initial residual = 0.00894901, Final residual = 9.67003e-08, No Iterations 144
time step continuity errors : sum local = 7.91204e-15, global = -1.75344e-17, cumulative = 7.77851e-15
DICPCG:  Solving for p, Initial residual = 0.00116252, Final residual = 9.10129e-08, No Iterations 137
time step continuity errors : sum local = 7.3718e-15, global = -1.3242e-17, cumulative = 7.76527e-15
ExecutionTime = 9.82 s  ClockTime = 11 s

forces forces write:
    sum of forces:
        pressure : (0 0 0)
        viscous  : (0 0 0)
        porous   : (0 0 0)
    sum of moments:
        pressure : (0 0 0)
        viscous  : (0 0 0)
        porous   : (0 0 0)

forceCoeffs forceCoeffs write:
    Cm    = 0
    Cd    = 0
    Cl    = 0
    Cl(f) = 0
    Cl(r) = 0

Time = 0.0066

Courant Number mean: 0.00197351 max: 0.0170414
smoothSolver:  Solving for Ux, Initial residual = 0.000822479, Final residual = 3.95437e-09, No Iterations 3
smoothSolver:  Solving for Uy, Initial residual = 0.00194744, Final residual = 3.07537e-09, No Iterations 3
DICPCG:  Solving for p, Initial residual = 0.00868682, Final residual = 9.71614e-08, No Iterations 144
time step continuity errors : sum local = 7.82977e-15, global = -1.28771e-17, cumulative = 7.75239e-15
DICPCG:  Solving for p, Initial residual = 0.00112124, Final residual = 8.88881e-08, No Iterations 137
time step continuity errors : sum local = 7.09422e-15, global = -1.38304e-17, cumulative = 7.73856e-15
ExecutionTime = 10.06 s  ClockTime = 11 s

forces forces write:
    sum of forces:
        pressure : (0 0 0)
        viscous  : (0 0 0)
        porous   : (0 0 0)
    sum of moments:
        pressure : (0 0 0)
        viscous  : (0 0 0)
        porous   : (0 0 0)

forceCoeffs forceCoeffs write:
    Cm    = 0
    Cd    = 0
    Cl    = 0
    Cl(f) = 0
    Cl(r) = 0

Time = 0.0068

Courant Number mean: 0.00197342 max: 0.017008
smoothSolver:  Solving for Ux, Initial residual = 0.000790556, Final residual = 3.77303e-09, No Iterations 3
smoothSolver:  Solving for Uy, Initial residual = 0.0019121, Final residual = 2.99292e-09, No Iterations 3
DICPCG:  Solving for p, Initial residual = 0.00881422, Final residual = 9.48819e-08, No Iterations 144
time step continuity errors : sum local = 7.52973e-15, global = -1.02383e-17, cumulative = 7.72832e-15
DICPCG:  Solving for p, Initial residual = 0.00109319, Final residual = 8.79909e-08, No Iterations 137
time step continuity errors : sum local = 6.91276e-15, global = -9.37198e-18, cumulative = 7.71895e-15
ExecutionTime = 10.29 s  ClockTime = 11 s

forces forces write:
    sum of forces:
        pressure : (0 0 0)
        viscous  : (0 0 0)
        porous   : (0 0 0)
    sum of moments:
        pressure : (0 0 0)
        viscous  : (0 0 0)
        porous   : (0 0 0)

forceCoeffs forceCoeffs write:
    Cm    = 0
    Cd    = 0
    Cl    = 0
    Cl(f) = 0
    Cl(r) = 0

Time = 0.007

Courant Number mean: 0.00197332 max: 0.0169736
smoothSolver:  Solving for Ux, Initial residual = 0.000760877, Final residual = 3.60539e-09, No Iterations 3
smoothSolver:  Solving for Uy, Initial residual = 0.00187849, Final residual = 2.91423e-09, No Iterations 3
DICPCG:  Solving for p, Initial residual = 0.00830054, Final residual = 9.02273e-08, No Iterations 144
time step continuity errors : sum local = 7.05246e-15, global = -3.55876e-18, cumulative = 7.71539e-15
DICPCG:  Solving for p, Initial residual = 0.00105616, Final residual = 8.57173e-08, No Iterations 137
time step continuity errors : sum local = 6.63689e-15, global = -1.08078e-17, cumulative = 7.70459e-15
ExecutionTime = 10.53 s  ClockTime = 12 s

forces forces write:
    sum of forces:
        pressure : (0 0 0)
        viscous  : (0 0 0)
        porous   : (0 0 0)
    sum of moments:
        pressure : (0 0 0)
        viscous  : (0 0 0)
        porous   : (0 0 0)

forceCoeffs forceCoeffs write:
    Cm    = 0
    Cd    = 0
    Cl    = 0
    Cl(f) = 0
    Cl(r) = 0

Time = 0.0072

Courant Number mean: 0.00197323 max: 0.0169383
smoothSolver:  Solving for Ux, Initial residual = 0.000733286, Final residual = 3.45006e-09, No Iterations 3
smoothSolver:  Solving for Uy, Initial residual = 0.00184575, Final residual = 2.83898e-09, No Iterations 3
DICPCG:  Solving for p, Initial residual = 0.00778355, Final residual = 8.38813e-08, No Iterations 144
time step continuity errors : sum local = 6.4647e-15, global = -1.66021e-18, cumulative = 7.70293e-15
DICPCG:  Solving for p, Initial residual = 0.0010207, Final residual = 9.95617e-08, No Iterations 136
time step continuity errors : sum local = 7.6049e-15, global = -1.40051e-17, cumulative = 7.68892e-15
ExecutionTime = 10.77 s  ClockTime = 12 s

forces forces write:
    sum of forces:
        pressure : (0 0 0)
        viscous  : (0 0 0)
        porous   : (0 0 0)
    sum of moments:
        pressure : (0 0 0)
        viscous  : (0 0 0)
        porous   : (0 0 0)

forceCoeffs forceCoeffs write:
    Cm    = 0
    Cd    = 0
    Cl    = 0
    Cl(f) = 0
    Cl(r) = 0

Time = 0.0074

Courant Number mean: 0.00197314 max: 0.016902
smoothSolver:  Solving for Ux, Initial residual = 0.000707511, Final residual = 3.30563e-09, No Iterations 3
smoothSolver:  Solving for Uy, Initial residual = 0.00181403, Final residual = 2.76714e-09, No Iterations 3
DICPCG:  Solving for p, Initial residual = 0.00842779, Final residual = 8.38183e-08, No Iterations 144
time step continuity errors : sum local = 6.36547e-15, global = 3.31502e-18, cumulative = 7.69223e-15
DICPCG:  Solving for p, Initial residual = 0.00100348, Final residual = 9.47688e-08, No Iterations 136
time step continuity errors : sum local = 7.12518e-15, global = -1.68468e-17, cumulative = 7.67539e-15
ExecutionTime = 10.99 s  ClockTime = 12 s

forces forces write:
    sum of forces:
        pressure : (0 0 0)
        viscous  : (0 0 0)
        porous   : (0 0 0)
    sum of moments:
        pressure : (0 0 0)
        viscous  : (0 0 0)
        porous   : (0 0 0)

forceCoeffs forceCoeffs write:
    Cm    = 0
    Cd    = 0
    Cl    = 0
    Cl(f) = 0
    Cl(r) = 0

Time = 0.0076

Courant Number mean: 0.00197305 max: 0.016865
smoothSolver:  Solving for Ux, Initial residual = 0.000683423, Final residual = 3.17109e-09, No Iterations 3
smoothSolver:  Solving for Uy, Initial residual = 0.00178406, Final residual = 2.69853e-09, No Iterations 3
DICPCG:  Solving for p, Initial residual = 0.00763409, Final residual = 9.56724e-08, No Iterations 143
time step continuity errors : sum local = 7.15707e-15, global = -2.26978e-17, cumulative = 7.65269e-15
DICPCG:  Solving for p, Initial residual = 0.000967342, Final residual = 9.50857e-08, No Iterations 136
time step continuity errors : sum local = 7.04794e-15, global = -1.40374e-17, cumulative = 7.63865e-15
ExecutionTime = 11.22 s  ClockTime = 12 s

forces forces write:
    sum of forces:
        pressure : (0 0 0)
        viscous  : (0 0 0)
        porous   : (0 0 0)
    sum of moments:
        pressure : (0 0 0)
        viscous  : (0 0 0)
        porous   : (0 0 0)

forceCoeffs forceCoeffs write:
    Cm    = 0
    Cd    = 0
    Cl    = 0
    Cl(f) = 0
    Cl(r) = 0

Time = 0.0078

Courant Number mean: 0.00197297 max: 0.0168272
smoothSolver:  Solving for Ux, Initial residual = 0.000660856, Final residual = 3.04567e-09, No Iterations 3
smoothSolver:  Solving for Uy, Initial residual = 0.00175459, Final residual = 2.63287e-09, No Iterations 3
DICPCG:  Solving for p, Initial residual = 0.00737522, Final residual = 7.71852e-08, No Iterations 144
time step continuity errors : sum local = 5.6926e-15, global = 2.82163e-18, cumulative = 7.64147e-15
DICPCG:  Solving for p, Initial residual = 0.000943745, Final residual = 9.65542e-08, No Iterations 136
time step continuity errors : sum local = 7.05645e-15, global = -1.62439e-17, cumulative = 7.62523e-15
ExecutionTime = 11.45 s  ClockTime = 13 s

forces forces write:
    sum of forces:
        pressure : (0 0 0)
        viscous  : (0 0 0)
        porous   : (0 0 0)
    sum of moments:
        pressure : (0 0 0)
        viscous  : (0 0 0)
        porous   : (0 0 0)

forceCoeffs forceCoeffs write:
    Cm    = 0
    Cd    = 0
    Cl    = 0
    Cl(f) = 0
    Cl(r) = 0

Time = 0.008

Courant Number mean: 0.00197288 max: 0.0167887
smoothSolver:  Solving for Ux, Initial residual = 0.000639612, Final residual = 2.92837e-09, No Iterations 3
smoothSolver:  Solving for Uy, Initial residual = 0.00172606, Final residual = 2.57007e-09, No Iterations 3
DICPCG:  Solving for p, Initial residual = 0.00759138, Final residual = 7.66418e-08, No Iterations 144
time step continuity errors : sum local = 5.57185e-15, global = 5.34954e-18, cumulative = 7.63058e-15
DICPCG:  Solving for p, Initial residual = 0.000923103, Final residual = 9.13318e-08, No Iterations 136
time step continuity errors : sum local = 6.5781e-15, global = -8.78766e-18, cumulative = 7.62179e-15
ExecutionTime = 11.68 s  ClockTime = 13 s

forces forces write:
    sum of forces:
        pressure : (0 0 0)
        viscous  : (0 0 0)
        porous   : (0 0 0)
    sum of moments:
        pressure : (0 0 0)
        viscous  : (0 0 0)
        porous   : (0 0 0)

forceCoeffs forceCoeffs write:
    Cm    = 0
    Cd    = 0
    Cl    = 0
    Cl(f) = 0
    Cl(r) = 0

Time = 0.0082

Courant Number mean: 0.0019728 max: 0.0167497
smoothSolver:  Solving for Ux, Initial residual = 0.000619565, Final residual = 2.81834e-09, No Iterations 3
smoothSolver:  Solving for Uy, Initial residual = 0.0016987, Final residual = 2.50985e-09, No Iterations 3
DICPCG:  Solving for p, Initial residual = 0.00701724, Final residual = 7.40571e-08, No Iterations 144
time step continuity errors : sum local = 5.30939e-15, global = 4.1603e-18, cumulative = 7.62595e-15
DICPCG:  Solving for p, Initial residual = 0.000899701, Final residual = 8.96719e-08, No Iterations 136
time step continuity errors : sum local = 6.37389e-15, global = -1.04215e-17, cumulative = 7.61553e-15
ExecutionTime = 11.92 s  ClockTime = 13 s

forces forces write:
    sum of forces:
        pressure : (0 0 0)
        viscous  : (0 0 0)
        porous   : (0 0 0)
    sum of moments:
        pressure : (0 0 0)
        viscous  : (0 0 0)
        porous   : (0 0 0)

forceCoeffs forceCoeffs write:
    Cm    = 0
    Cd    = 0
    Cl    = 0
    Cl(f) = 0
    Cl(r) = 0

Time = 0.0084

Courant Number mean: 0.00197271 max: 0.0167101
smoothSolver:  Solving for Ux, Initial residual = 0.000600647, Final residual = 2.71501e-09, No Iterations 3
smoothSolver:  Solving for Uy, Initial residual = 0.00167191, Final residual = 2.45218e-09, No Iterations 3
DICPCG:  Solving for p, Initial residual = 0.00652042, Final residual = 8.65185e-08, No Iterations 143
time step continuity errors : sum local = 6.12475e-15, global = -1.9683e-17, cumulative = 7.59585e-15
DICPCG:  Solving for p, Initial residual = 0.000871978, Final residual = 8.66928e-08, No Iterations 136
time step continuity errors : sum local = 6.08837e-15, global = -8.25798e-18, cumulative = 7.58759e-15
ExecutionTime = 12.16 s  ClockTime = 13 s

forces forces write:
    sum of forces:
        pressure : (0 0 0)
        viscous  : (0 0 0)
        porous   : (0 0 0)
    sum of moments:
        pressure : (0 0 0)
        viscous  : (0 0 0)
        porous   : (0 0 0)

forceCoeffs forceCoeffs write:
    Cm    = 0
    Cd    = 0
    Cl    = 0
    Cl(f) = 0
    Cl(r) = 0

Time = 0.0086

Courant Number mean: 0.00197263 max: 0.01667
smoothSolver:  Solving for Ux, Initial residual = 0.00058277, Final residual = 2.61785e-09, No Iterations 3
smoothSolver:  Solving for Uy, Initial residual = 0.00164586, Final residual = 2.39674e-09, No Iterations 3
DICPCG:  Solving for p, Initial residual = 0.00632907, Final residual = 9.6516e-08, No Iterations 143
time step continuity errors : sum local = 6.75206e-15, global = -2.6557e-17, cumulative = 7.56103e-15
DICPCG:  Solving for p, Initial residual = 0.000848932, Final residual = 8.80617e-08, No Iterations 136
time step continuity errors : sum local = 6.11336e-15, global = -1.47169e-17, cumulative = 7.54632e-15
ExecutionTime = 12.39 s  ClockTime = 13 s

forces forces write:
    sum of forces:
        pressure : (0 0 0)
        viscous  : (0 0 0)
        porous   : (0 0 0)
    sum of moments:
        pressure : (0 0 0)
        viscous  : (0 0 0)
        porous   : (0 0 0)

forceCoeffs forceCoeffs write:
    Cm    = 0
    Cd    = 0
    Cl    = 0
    Cl(f) = 0
    Cl(r) = 0

Time = 0.0088

Courant Number mean: 0.00197255 max: 0.0166294
smoothSolver:  Solving for Ux, Initial residual = 0.000565855, Final residual = 2.52639e-09, No Iterations 3
smoothSolver:  Solving for Uy, Initial residual = 0.00162069, Final residual = 9.83754e-08, No Iterations 2
DICPCG:  Solving for p, Initial residual = 0.00677693, Final residual = 9.44686e-08, No Iterations 143
time step continuity errors : sum local = 6.53093e-15, global = -2.47539e-17, cumulative = 7.52156e-15
DICPCG:  Solving for p, Initial residual = 0.000856427, Final residual = 8.48135e-08, No Iterations 136
time step continuity errors : sum local = 5.81702e-15, global = -1.33544e-17, cumulative = 7.50821e-15
ExecutionTime = 12.63 s  ClockTime = 14 s

forces forces write:
    sum of forces:
        pressure : (0 0 0)
        viscous  : (0 0 0)
        porous   : (0 0 0)
    sum of moments:
        pressure : (0 0 0)
        viscous  : (0 0 0)
        porous   : (0 0 0)

forceCoeffs forceCoeffs write:
    Cm    = 0
    Cd    = 0
    Cl    = 0
    Cl(f) = 0
    Cl(r) = 0

Time = 0.009

Courant Number mean: 0.00197247 max: 0.0165885
smoothSolver:  Solving for Ux, Initial residual = 0.00054982, Final residual = 9.80431e-08, No Iterations 2
smoothSolver:  Solving for Uy, Initial residual = 0.00159651, Final residual = 9.63177e-08, No Iterations 2
DICPCG:  Solving for p, Initial residual = 0.00608565, Final residual = 8.29037e-08, No Iterations 143
time step continuity errors : sum local = 5.6672e-15, global = -1.38738e-17, cumulative = 7.49433e-15
DICPCG:  Solving for p, Initial residual = 0.000806636, Final residual = 8.5515e-08, No Iterations 136
time step continuity errors : sum local = 5.80479e-15, global = -1.22587e-17, cumulative = 7.48208e-15
ExecutionTime = 12.84 s  ClockTime = 14 s

forces forces write:
    sum of forces:
        pressure : (0 0 0)
        viscous  : (0 0 0)
        porous   : (0 0 0)
    sum of moments:
        pressure : (0 0 0)
        viscous  : (0 0 0)
        porous   : (0 0 0)

forceCoeffs forceCoeffs write:
    Cm    = 0
    Cd    = 0
    Cl    = 0
    Cl(f) = 0
    Cl(r) = 0

Time = 0.0092

Courant Number mean: 0.00197239 max: 0.0165472
smoothSolver:  Solving for Ux, Initial residual = 0.000534618, Final residual = 9.49252e-08, No Iterations 2
smoothSolver:  Solving for Uy, Initial residual = 0.00157287, Final residual = 9.43463e-08, No Iterations 2
DICPCG:  Solving for p, Initial residual = 0.00587435, Final residual = 8.98697e-08, No Iterations 143
time step continuity errors : sum local = 6.08128e-15, global = -2.17861e-17, cumulative = 7.46029e-15
DICPCG:  Solving for p, Initial residual = 0.000782906, Final residual = 7.97209e-08, No Iterations 136
time step continuity errors : sum local = 5.35791e-15, global = -9.22699e-18, cumulative = 7.45106e-15
ExecutionTime = 13.07 s  ClockTime = 14 s

forces forces write:
    sum of forces:
        pressure : (0 0 0)
        viscous  : (0 0 0)
        porous   : (0 0 0)
    sum of moments:
        pressure : (0 0 0)
        viscous  : (0 0 0)
        porous   : (0 0 0)

forceCoeffs forceCoeffs write:
    Cm    = 0
    Cd    = 0
    Cl    = 0
    Cl(f) = 0
    Cl(r) = 0

Time = 0.0094

Courant Number mean: 0.00197231 max: 0.0165114
smoothSolver:  Solving for Ux, Initial residual = 0.000520211, Final residual = 9.19741e-08, No Iterations 2
smoothSolver:  Solving for Uy, Initial residual = 0.00155005, Final residual = 9.24425e-08, No Iterations 2
DICPCG:  Solving for p, Initial residual = 0.00580056, Final residual = 8.81288e-08, No Iterations 143
time step continuity errors : sum local = 5.90573e-15, global = -2.09136e-17, cumulative = 7.43015e-15
DICPCG:  Solving for p, Initial residual = 0.000765381, Final residual = 9.81881e-08, No Iterations 124
time step continuity errors : sum local = 6.53702e-15, global = -4.70726e-17, cumulative = 7.38308e-15
ExecutionTime = 13.29 s  ClockTime = 14 s

forces forces write:
    sum of forces:
        pressure : (0 0 0)
        viscous  : (0 0 0)
        porous   : (0 0 0)
    sum of moments:
        pressure : (0 0 0)
        viscous  : (0 0 0)
        porous   : (0 0 0)

forceCoeffs forceCoeffs write:
    Cm    = 0
    Cd    = 0
    Cl    = 0
    Cl(f) = 0
    Cl(r) = 0

Time = 0.0096

Courant Number mean: 0.00197224 max: 0.0164889
smoothSolver:  Solving for Ux, Initial residual = 0.00050653, Final residual = 8.91749e-08, No Iterations 2
smoothSolver:  Solving for Uy, Initial residual = 0.00152794, Final residual = 9.06085e-08, No Iterations 2
DICPCG:  Solving for p, Initial residual = 0.00575888, Final residual = 8.56886e-08, No Iterations 143
time step continuity errors : sum local = 5.68973e-15, global = -1.94467e-17, cumulative = 7.36363e-15
DICPCG:  Solving for p, Initial residual = 0.000747347, Final residual = 9.91297e-08, No Iterations 124
time step continuity errors : sum local = 6.54153e-15, global = -4.66167e-17, cumulative = 7.31701e-15
ExecutionTime = 13.51 s  ClockTime = 15 s

forces forces write:
    sum of forces:
        pressure : (0 0 0)
        viscous  : (0 0 0)
        porous   : (0 0 0)
    sum of moments:
        pressure : (0 0 0)
        viscous  : (0 0 0)
        porous   : (0 0 0)

forceCoeffs forceCoeffs write:
    Cm    = 0
    Cd    = 0
    Cl    = 0
    Cl(f) = 0
    Cl(r) = 0

Time = 0.0098

Courant Number mean: 0.00197216 max: 0.0164659
smoothSolver:  Solving for Ux, Initial residual = 0.000493516, Final residual = 8.65178e-08, No Iterations 2
smoothSolver:  Solving for Uy, Initial residual = 0.00150647, Final residual = 8.88402e-08, No Iterations 2
DICPCG:  Solving for p, Initial residual = 0.00584839, Final residual = 9.86622e-08, No Iterations 142
time step continuity errors : sum local = 6.49195e-15, global = -4.91595e-17, cumulative = 7.26785e-15
DICPCG:  Solving for p, Initial residual = 0.00073541, Final residual = 9.33546e-08, No Iterations 124
time step continuity errors : sum local = 6.10387e-15, global = -4.24931e-17, cumulative = 7.22536e-15
ExecutionTime = 13.73 s  ClockTime = 15 s

forces forces write:
    sum of forces:
        pressure : (0 0 0)
        viscous  : (0 0 0)
        porous   : (0 0 0)
    sum of moments:
        pressure : (0 0 0)
        viscous  : (0 0 0)
        porous   : (0 0 0)

forceCoeffs forceCoeffs write:
    Cm    = 0
    Cd    = 0
    Cl    = 0
    Cl(f) = 0
    Cl(r) = 0

Time = 0.01

Courant Number mean: 0.00197208 max: 0.0164424
smoothSolver:  Solving for Ux, Initial residual = 0.000481156, Final residual = 8.39934e-08, No Iterations 2
smoothSolver:  Solving for Uy, Initial residual = 0.0014859, Final residual = 8.71361e-08, No Iterations 2
DICPCG:  Solving for p, Initial residual = 0.00563391, Final residual = 8.11935e-08, No Iterations 143
time step continuity errors : sum local = 5.29517e-15, global = -1.78683e-17, cumulative = 7.20749e-15
DICPCG:  Solving for p, Initial residual = 0.000718076, Final residual = 9.96511e-08, No Iterations 123
time step continuity errors : sum local = 6.46024e-15, global = -3.90073e-17, cumulative = 7.16848e-15
ExecutionTime = 13.94 s  ClockTime = 15 s

forces forces write:
    sum of forces:
        pressure : (0 0 0)
        viscous  : (0 0 0)
        porous   : (0 0 0)
    sum of moments:
        pressure : (0 0 0)
        viscous  : (0 0 0)
        porous   : (0 0 0)

forceCoeffs forceCoeffs write:
    Cm    = 0
    Cd    = 0
    Cl    = 0
    Cl(f) = 0
    Cl(r) = 0

Time = 0.0102

Courant Number mean: 0.00197201 max: 0.0164184
smoothSolver:  Solving for Ux, Initial residual = 0.000469362, Final residual = 8.15924e-08, No Iterations 2
smoothSolver:  Solving for Uy, Initial residual = 0.00146576, Final residual = 8.54909e-08, No Iterations 2
DICPCG:  Solving for p, Initial residual = 0.00568799, Final residual = 8.11265e-08, No Iterations 143
time step continuity errors : sum local = 5.2439e-15, global = -1.74492e-17, cumulative = 7.15104e-15
DICPCG:  Solving for p, Initial residual = 0.000709084, Final residual = 9.69612e-08, No Iterations 123
time step continuity errors : sum local = 6.22828e-15, global = -3.31394e-17, cumulative = 7.1179e-15
ExecutionTime = 14.16 s  ClockTime = 15 s

forces forces write:
    sum of forces:
        pressure : (0 0 0)
        viscous  : (0 0 0)
        porous   : (0 0 0)
    sum of moments:
        pressure : (0 0 0)
        viscous  : (0 0 0)
        porous   : (0 0 0)

forceCoeffs forceCoeffs write:
    Cm    = 0
    Cd    = 0
    Cl    = 0
    Cl(f) = 0
    Cl(r) = 0

Time = 0.0104

Courant Number mean: 0.00197194 max: 0.016394
smoothSolver:  Solving for Ux, Initial residual = 0.000458079, Final residual = 7.93072e-08, No Iterations 2
smoothSolver:  Solving for Uy, Initial residual = 0.00144635, Final residual = 8.3899e-08, No Iterations 2
DICPCG:  Solving for p, Initial residual = 0.00539631, Final residual = 7.89981e-08, No Iterations 143
time step continuity errors : sum local = 5.05828e-15, global = -1.73331e-17, cumulative = 7.10056e-15
DICPCG:  Solving for p, Initial residual = 0.00069404, Final residual = 9.2046e-08, No Iterations 124
time step continuity errors : sum local = 5.85589e-15, global = -4.23205e-17, cumulative = 7.05824e-15
ExecutionTime = 14.37 s  ClockTime = 15 s

forces forces write:
    sum of forces:
        pressure : (0 0 0)
        viscous  : (0 0 0)
        porous   : (0 0 0)
    sum of moments:
        pressure : (0 0 0)
        viscous  : (0 0 0)
        porous   : (0 0 0)

forceCoeffs forceCoeffs write:
    Cm    = 0
    Cd    = 0
    Cl    = 0
    Cl(f) = 0
    Cl(r) = 0

Time = 0.0106

Courant Number mean: 0.00197186 max: 0.0163692
smoothSolver:  Solving for Ux, Initial residual = 0.000447284, Final residual = 7.71295e-08, No Iterations 2
smoothSolver:  Solving for Uy, Initial residual = 0.00142763, Final residual = 8.23584e-08, No Iterations 2
DICPCG:  Solving for p, Initial residual = 0.00565127, Final residual = 7.78022e-08, No Iterations 143
time step continuity errors : sum local = 4.93249e-15, global = -1.66888e-17, cumulative = 7.04155e-15
DICPCG:  Solving for p, Initial residual = 0.000684876, Final residual = 9.22535e-08, No Iterations 123
time step continuity errors : sum local = 5.80975e-15, global = -3.3937e-17, cumulative = 7.00762e-15
ExecutionTime = 14.59 s  ClockTime = 16 s

forces forces write:
    sum of forces:
        pressure : (0 0 0)
        viscous  : (0 0 0)
        porous   : (0 0 0)
    sum of moments:
        pressure : (0 0 0)
        viscous  : (0 0 0)
        porous   : (0 0 0)

forceCoeffs forceCoeffs write:
    Cm    = 0
    Cd    = 0
    Cl    = 0
    Cl(f) = 0
    Cl(r) = 0

Time = 0.0108

Courant Number mean: 0.00197179 max: 0.0163439
smoothSolver:  Solving for Ux, Initial residual = 0.000436952, Final residual = 7.50523e-08, No Iterations 2
smoothSolver:  Solving for Uy, Initial residual = 0.00140957, Final residual = 8.08649e-08, No Iterations 2
DICPCG:  Solving for p, Initial residual = 0.00500193, Final residual = 9.95185e-08, No Iterations 142
time step continuity errors : sum local = 6.24988e-15, global = -5.43121e-17, cumulative = 6.9533e-15
DICPCG:  Solving for p, Initial residual = 0.000665388, Final residual = 9.59555e-08, No Iterations 123
time step continuity errors : sum local = 5.99035e-15, global = -2.76008e-17, cumulative = 6.9257e-15
ExecutionTime = 14.81 s  ClockTime = 16 s

forces forces write:
    sum of forces:
        pressure : (0 0 0)
        viscous  : (0 0 0)
        porous   : (0 0 0)
    sum of moments:
        pressure : (0 0 0)
        viscous  : (0 0 0)
        porous   : (0 0 0)

forceCoeffs forceCoeffs write:
    Cm    = 0
    Cd    = 0
    Cl    = 0
    Cl(f) = 0
    Cl(r) = 0

Time = 0.011

Courant Number mean: 0.00197172 max: 0.0163184
smoothSolver:  Solving for Ux, Initial residual = 0.000427056, Final residual = 7.3071e-08, No Iterations 2
smoothSolver:  Solving for Uy, Initial residual = 0.00139167, Final residual = 7.94201e-08, No Iterations 2
DICPCG:  Solving for p, Initial residual = 0.00571136, Final residual = 9.81663e-08, No Iterations 142
time step continuity errors : sum local = 6.10826e-15, global = -5.41464e-17, cumulative = 6.87156e-15
DICPCG:  Solving for p, Initial residual = 0.000673451, Final residual = 9.16669e-08, No Iterations 123
time step continuity errors : sum local = 5.66755e-15, global = -3.09192e-17, cumulative = 6.84064e-15
ExecutionTime = 15.02 s  ClockTime = 16 s

forces forces write:
    sum of forces:
        pressure : (0 0 0)
        viscous  : (0 0 0)
        porous   : (0 0 0)
    sum of moments:
        pressure : (0 0 0)
        viscous  : (0 0 0)
        porous   : (0 0 0)

forceCoeffs forceCoeffs write:
    Cm    = 0
    Cd    = 0
    Cl    = 0
    Cl(f) = 0
    Cl(r) = 0

Time = 0.0112

Courant Number mean: 0.00197165 max: 0.0162925
smoothSolver:  Solving for Ux, Initial residual = 0.000417558, Final residual = 7.11796e-08, No Iterations 2
smoothSolver:  Solving for Uy, Initial residual = 0.00137449, Final residual = 7.80228e-08, No Iterations 2
DICPCG:  Solving for p, Initial residual = 0.0058331, Final residual = 9.25941e-08, No Iterations 142
time step continuity errors : sum local = 5.70553e-15, global = -5.08396e-17, cumulative = 6.7898e-15
DICPCG:  Solving for p, Initial residual = 0.000676443, Final residual = 8.99026e-08, No Iterations 123
time step continuity errors : sum local = 5.5042e-15, global = -3.08787e-17, cumulative = 6.75892e-15
ExecutionTime = 15.23 s  ClockTime = 16 s

forces forces write:
    sum of forces:
        pressure : (0 0 0)
        viscous  : (0 0 0)
        porous   : (0 0 0)
    sum of moments:
        pressure : (0 0 0)
        viscous  : (0 0 0)
        porous   : (0 0 0)

forceCoeffs forceCoeffs write:
    Cm    = 0
    Cd    = 0
    Cl    = 0
    Cl(f) = 0
    Cl(r) = 0

Time = 0.0114

Courant Number mean: 0.00197158 max: 0.0162663
smoothSolver:  Solving for Ux, Initial residual = 0.000408445, Final residual = 6.93696e-08, No Iterations 2
smoothSolver:  Solving for Uy, Initial residual = 0.00135779, Final residual = 7.66798e-08, No Iterations 2
DICPCG:  Solving for p, Initial residual = 0.00513089, Final residual = 8.49182e-08, No Iterations 142
time step continuity errors : sum local = 5.18478e-15, global = -4.15462e-17, cumulative = 6.71737e-15
DICPCG:  Solving for p, Initial residual = 0.00065229, Final residual = 8.91724e-08, No Iterations 123
time step continuity errors : sum local = 5.41307e-15, global = -3.25377e-17, cumulative = 6.68484e-15
ExecutionTime = 15.45 s  ClockTime = 17 s

forces forces write:
    sum of forces:
        pressure : (0 0 0)
        viscous  : (0 0 0)
        porous   : (0 0 0)
    sum of moments:
        pressure : (0 0 0)
        viscous  : (0 0 0)
        porous   : (0 0 0)

forceCoeffs forceCoeffs write:
    Cm    = 0
    Cd    = 0
    Cl    = 0
    Cl(f) = 0
    Cl(r) = 0

Time = 0.0116

Courant Number mean: 0.00197151 max: 0.0162398
smoothSolver:  Solving for Ux, Initial residual = 0.000399715, Final residual = 6.7636e-08, No Iterations 2
smoothSolver:  Solving for Uy, Initial residual = 0.00134127, Final residual = 7.5376e-08, No Iterations 2
DICPCG:  Solving for p, Initial residual = 0.00468032, Final residual = 9.33346e-08, No Iterations 142
time step continuity errors : sum local = 5.65126e-15, global = -4.8801e-17, cumulative = 6.63604e-15
DICPCG:  Solving for p, Initial residual = 0.000625452, Final residual = 8.93807e-08, No Iterations 123
time step continuity errors : sum local = 5.3819e-15, global = -2.51412e-17, cumulative = 6.61089e-15
ExecutionTime = 15.67 s  ClockTime = 17 s

forces forces write:
    sum of forces:
        pressure : (0 0 0)
        viscous  : (0 0 0)
        porous   : (0 0 0)
    sum of moments:
        pressure : (0 0 0)
        viscous  : (0 0 0)
        porous   : (0 0 0)

forceCoeffs forceCoeffs write:
    Cm    = 0
    Cd    = 0
    Cl    = 0
    Cl(f) = 0
    Cl(r) = 0

Time = 0.0118

Courant Number mean: 0.00197144 max: 0.016213
smoothSolver:  Solving for Ux, Initial residual = 0.000391335, Final residual = 6.59745e-08, No Iterations 2
smoothSolver:  Solving for Uy, Initial residual = 0.00132521, Final residual = 7.41108e-08, No Iterations 2
DICPCG:  Solving for p, Initial residual = 0.00454641, Final residual = 9.15681e-08, No Iterations 142
time step continuity errors : sum local = 5.49865e-15, global = -4.56001e-17, cumulative = 6.56529e-15
DICPCG:  Solving for p, Initial residual = 0.000610228, Final residual = 8.72875e-08, No Iterations 123
time step continuity errors : sum local = 5.21204e-15, global = -2.39339e-17, cumulative = 6.54136e-15
ExecutionTime = 15.88 s  ClockTime = 17 s

forces forces write:
    sum of forces:
        pressure : (0 0 0)
        viscous  : (0 0 0)
        porous   : (0 0 0)
    sum of moments:
        pressure : (0 0 0)
        viscous  : (0 0 0)
        porous   : (0 0 0)

forceCoeffs forceCoeffs write:
    Cm    = 0
    Cd    = 0
    Cl    = 0
    Cl(f) = 0
    Cl(r) = 0

Time = 0.012

Courant Number mean: 0.00197138 max: 0.0161859
smoothSolver:  Solving for Ux, Initial residual = 0.000383294, Final residual = 6.43817e-08, No Iterations 2
smoothSolver:  Solving for Uy, Initial residual = 0.00130968, Final residual = 7.28826e-08, No Iterations 2
DICPCG:  Solving for p, Initial residual = 0.00483285, Final residual = 9.06949e-08, No Iterations 142
time step continuity errors : sum local = 5.39926e-15, global = -4.54553e-17, cumulative = 6.4959e-15
DICPCG:  Solving for p, Initial residual = 0.000615048, Final residual = 8.73433e-08, No Iterations 123
time step continuity errors : sum local = 5.16923e-15, global = -2.34162e-17, cumulative = 6.47249e-15
ExecutionTime = 16.1 s  ClockTime = 17 s

forces forces write:
    sum of forces:
        pressure : (0 0 0)
        viscous  : (0 0 0)
        porous   : (0 0 0)
    sum of moments:
        pressure : (0 0 0)
        viscous  : (0 0 0)
        porous   : (0 0 0)

forceCoeffs forceCoeffs write:
    Cm    = 0
    Cd    = 0
    Cl    = 0
    Cl(f) = 0
    Cl(r) = 0

Time = 0.0122

Courant Number mean: 0.00197131 max: 0.0161587
smoothSolver:  Solving for Ux, Initial residual = 0.000375563, Final residual = 6.28538e-08, No Iterations 2
smoothSolver:  Solving for Uy, Initial residual = 0.0012946, Final residual = 7.16989e-08, No Iterations 2
DICPCG:  Solving for p, Initial residual = 0.00448034, Final residual = 8.86856e-08, No Iterations 142
time step continuity errors : sum local = 5.23437e-15, global = -4.43621e-17, cumulative = 6.42813e-15
DICPCG:  Solving for p, Initial residual = 0.000602904, Final residual = 9.78385e-08, No Iterations 122
time step continuity errors : sum local = 5.74262e-15, global = -1.14843e-17, cumulative = 6.41664e-15
ExecutionTime = 16.31 s  ClockTime = 17 s

forces forces write:
    sum of forces:
        pressure : (0 0 0)
        viscous  : (0 0 0)
        porous   : (0 0 0)
    sum of moments:
        pressure : (0 0 0)
        viscous  : (0 0 0)
        porous   : (0 0 0)

forceCoeffs forceCoeffs write:
    Cm    = 0
    Cd    = 0
    Cl    = 0
    Cl(f) = 0
    Cl(r) = 0

Time = 0.0124

Courant Number mean: 0.00197124 max: 0.0161312
smoothSolver:  Solving for Ux, Initial residual = 0.000368126, Final residual = 6.13855e-08, No Iterations 2
smoothSolver:  Solving for Uy, Initial residual = 0.00127985, Final residual = 7.0545e-08, No Iterations 2
DICPCG:  Solving for p, Initial residual = 0.004428, Final residual = 8.94002e-08, No Iterations 142
time step continuity errors : sum local = 5.233e-15, global = -4.18294e-17, cumulative = 6.37481e-15
DICPCG:  Solving for p, Initial residual = 0.000583709, Final residual = 9.57416e-08, No Iterations 122
time step continuity errors : sum local = 5.57328e-15, global = -1.04749e-17, cumulative = 6.36434e-15
ExecutionTime = 16.53 s  ClockTime = 18 s

forces forces write:
    sum of forces:
        pressure : (0 0 0)
        viscous  : (0 0 0)
        porous   : (0 0 0)
    sum of moments:
        pressure : (0 0 0)
        viscous  : (0 0 0)
        porous   : (0 0 0)

forceCoeffs forceCoeffs write:
    Cm    = 0
    Cd    = 0
    Cl    = 0
    Cl(f) = 0
    Cl(r) = 0

Time = 0.0126

Courant Number mean: 0.00197118 max: 0.0161035
smoothSolver:  Solving for Ux, Initial residual = 0.000360972, Final residual = 5.99737e-08, No Iterations 2
smoothSolver:  Solving for Uy, Initial residual = 0.00126555, Final residual = 6.9415e-08, No Iterations 2
DICPCG:  Solving for p, Initial residual = 0.0042329, Final residual = 8.63643e-08, No Iterations 142
time step continuity errors : sum local = 5.01459e-15, global = -4.09558e-17, cumulative = 6.32338e-15
DICPCG:  Solving for p, Initial residual = 0.000572286, Final residual = 8.48897e-08, No Iterations 123
time step continuity errors : sum local = 4.90295e-15, global = -2.07342e-17, cumulative = 6.30265e-15
ExecutionTime = 16.75 s  ClockTime = 18 s

forces forces write:
    sum of forces:
        pressure : (0 0 0)
        viscous  : (0 0 0)
        porous   : (0 0 0)
    sum of moments:
        pressure : (0 0 0)
        viscous  : (0 0 0)
        porous   : (0 0 0)

forceCoeffs forceCoeffs write:
    Cm    = 0
    Cd    = 0
    Cl    = 0
    Cl(f) = 0
    Cl(r) = 0

Time = 0.0128

Courant Number mean: 0.00197111 max: 0.0160757
smoothSolver:  Solving for Ux, Initial residual = 0.000354101, Final residual = 5.86165e-08, No Iterations 2
smoothSolver:  Solving for Uy, Initial residual = 0.00125151, Final residual = 6.83153e-08, No Iterations 2
DICPCG:  Solving for p, Initial residual = 0.00408826, Final residual = 8.50507e-08, No Iterations 142
time step continuity errors : sum local = 4.90056e-15, global = -4.20286e-17, cumulative = 6.26062e-15
DICPCG:  Solving for p, Initial residual = 0.000559988, Final residual = 9.33985e-08, No Iterations 122
time step continuity errors : sum local = 5.35433e-15, global = -1.14295e-17, cumulative = 6.24919e-15
ExecutionTime = 16.96 s  ClockTime = 18 s

forces forces write:
    sum of forces:
        pressure : (0 0 0)
        viscous  : (0 0 0)
        porous   : (0 0 0)
    sum of moments:
        pressure : (0 0 0)
        viscous  : (0 0 0)
        porous   : (0 0 0)

forceCoeffs forceCoeffs write:
    Cm    = 0
    Cd    = 0
    Cl    = 0
    Cl(f) = 0
    Cl(r) = 0

Time = 0.013

Courant Number mean: 0.00197105 max: 0.0160477
smoothSolver:  Solving for Ux, Initial residual = 0.000347472, Final residual = 5.73102e-08, No Iterations 2
smoothSolver:  Solving for Uy, Initial residual = 0.0012378, Final residual = 6.72487e-08, No Iterations 2
DICPCG:  Solving for p, Initial residual = 0.0042444, Final residual = 9.74993e-08, No Iterations 141
time step continuity errors : sum local = 5.5757e-15, global = -5.51581e-17, cumulative = 6.19403e-15
DICPCG:  Solving for p, Initial residual = 0.00055711, Final residual = 9.35006e-08, No Iterations 122
time step continuity errors : sum local = 5.31975e-15, global = -9.47744e-18, cumulative = 6.18455e-15
ExecutionTime = 17.18 s  ClockTime = 18 s

forces forces write:
    sum of forces:
        pressure : (0 0 0)
        viscous  : (0 0 0)
        porous   : (0 0 0)
    sum of moments:
        pressure : (0 0 0)
        viscous  : (0 0 0)
        porous   : (0 0 0)

forceCoeffs forceCoeffs write:
    Cm    = 0
    Cd    = 0
    Cl    = 0
    Cl(f) = 0
    Cl(r) = 0

Time = 0.0132

Courant Number mean: 0.00197098 max: 0.0160196
smoothSolver:  Solving for Ux, Initial residual = 0.000341064, Final residual = 5.60521e-08, No Iterations 2
smoothSolver:  Solving for Uy, Initial residual = 0.0012245, Final residual = 6.62119e-08, No Iterations 2
DICPCG:  Solving for p, Initial residual = 0.00416576, Final residual = 9.77385e-08, No Iterations 141
time step continuity errors : sum local = 5.54872e-15, global = -5.8642e-17, cumulative = 6.12591e-15
DICPCG:  Solving for p, Initial residual = 0.000552053, Final residual = 9.11621e-08, No Iterations 122
time step continuity errors : sum local = 5.15067e-15, global = -1.16509e-17, cumulative = 6.11426e-15
ExecutionTime = 17.4 s  ClockTime = 19 s

forces forces write:
    sum of forces:
        pressure : (0 0 0)
        viscous  : (0 0 0)
        porous   : (0 0 0)
    sum of moments:
        pressure : (0 0 0)
        viscous  : (0 0 0)
        porous   : (0 0 0)

forceCoeffs forceCoeffs write:
    Cm    = 0
    Cd    = 0
    Cl    = 0
    Cl(f) = 0
    Cl(r) = 0

Time = 0.0134

Courant Number mean: 0.00197092 max: 0.0159913
smoothSolver:  Solving for Ux, Initial residual = 0.000334873, Final residual = 5.48411e-08, No Iterations 2
smoothSolver:  Solving for Uy, Initial residual = 0.00121143, Final residual = 6.52052e-08, No Iterations 2
DICPCG:  Solving for p, Initial residual = 0.00402956, Final residual = 9.58406e-08, No Iterations 141
time step continuity errors : sum local = 5.40285e-15, global = -5.59468e-17, cumulative = 6.05831e-15
DICPCG:  Solving for p, Initial residual = 0.000543421, Final residual = 8.89054e-08, No Iterations 122
time step continuity errors : sum local = 4.98785e-15, global = -1.01517e-17, cumulative = 6.04816e-15
ExecutionTime = 17.61 s  ClockTime = 19 s

forces forces write:
    sum of forces:
        pressure : (0 0 0)
        viscous  : (0 0 0)
        porous   : (0 0 0)
    sum of moments:
        pressure : (0 0 0)
        viscous  : (0 0 0)
        porous   : (0 0 0)

forceCoeffs forceCoeffs write:
    Cm    = 0
    Cd    = 0
    Cl    = 0
    Cl(f) = 0
    Cl(r) = 0

Time = 0.0136

Courant Number mean: 0.00197086 max: 0.015963
smoothSolver:  Solving for Ux, Initial residual = 0.000328888, Final residual = 5.36734e-08, No Iterations 2
smoothSolver:  Solving for Uy, Initial residual = 0.00119875, Final residual = 6.42264e-08, No Iterations 2
DICPCG:  Solving for p, Initial residual = 0.0041347, Final residual = 9.89855e-08, No Iterations 141
time step continuity errors : sum local = 5.54052e-15, global = -5.46214e-17, cumulative = 5.99354e-15
DICPCG:  Solving for p, Initial residual = 0.000536475, Final residual = 9.1303e-08, No Iterations 122
time step continuity errors : sum local = 5.08574e-15, global = -1.02256e-17, cumulative = 5.98332e-15
ExecutionTime = 17.82 s  ClockTime = 19 s

forces forces write:
    sum of forces:
        pressure : (0 0 0)
        viscous  : (0 0 0)
        porous   : (0 0 0)
    sum of moments:
        pressure : (0 0 0)
        viscous  : (0 0 0)
        porous   : (0 0 0)

forceCoeffs forceCoeffs write:
    Cm    = 0
    Cd    = 0
    Cl    = 0
    Cl(f) = 0
    Cl(r) = 0

Time = 0.0138

Courant Number mean: 0.0019708 max: 0.0159346
smoothSolver:  Solving for Ux, Initial residual = 0.000323102, Final residual = 5.25472e-08, No Iterations 2
smoothSolver:  Solving for Uy, Initial residual = 0.00118644, Final residual = 6.32705e-08, No Iterations 2
DICPCG:  Solving for p, Initial residual = 0.00401668, Final residual = 9.8852e-08, No Iterations 141
time step continuity errors : sum local = 5.49451e-15, global = -5.77049e-17, cumulative = 5.92561e-15
DICPCG:  Solving for p, Initial residual = 0.000523275, Final residual = 9.0538e-08, No Iterations 122
time step continuity errors : sum local = 5.00915e-15, global = -8.20538e-18, cumulative = 5.91741e-15
ExecutionTime = 18.04 s  ClockTime = 19 s

forces forces write:
    sum of forces:
        pressure : (0 0 0)
        viscous  : (0 0 0)
        porous   : (0 0 0)
    sum of moments:
        pressure : (0 0 0)
        viscous  : (0 0 0)
        porous   : (0 0 0)

forceCoeffs forceCoeffs write:
    Cm    = 0
    Cd    = 0
    Cl    = 0
    Cl(f) = 0
    Cl(r) = 0

Time = 0.014

Courant Number mean: 0.00197073 max: 0.015906
smoothSolver:  Solving for Ux, Initial residual = 0.000317506, Final residual = 5.14615e-08, No Iterations 2
smoothSolver:  Solving for Uy, Initial residual = 0.00117435, Final residual = 6.23418e-08, No Iterations 2
DICPCG:  Solving for p, Initial residual = 0.0040535, Final residual = 9.8031e-08, No Iterations 140
time step continuity errors : sum local = 5.41314e-15, global = -5.02568e-17, cumulative = 5.86715e-15
DICPCG:  Solving for p, Initial residual = 0.000518446, Final residual = 9.02877e-08, No Iterations 122
time step continuity errors : sum local = 4.96367e-15, global = -8.48522e-18, cumulative = 5.85866e-15
ExecutionTime = 18.25 s  ClockTime = 19 s

forces forces write:
    sum of forces:
        pressure : (0 0 0)
        viscous  : (0 0 0)
        porous   : (0 0 0)
    sum of moments:
        pressure : (0 0 0)
        viscous  : (0 0 0)
        porous   : (0 0 0)

forceCoeffs forceCoeffs write:
    Cm    = 0
    Cd    = 0
    Cl    = 0
    Cl(f) = 0
    Cl(r) = 0

Time = 0.0142

Courant Number mean: 0.00197067 max: 0.0158774
smoothSolver:  Solving for Ux, Initial residual = 0.00031209, Final residual = 5.04143e-08, No Iterations 2
smoothSolver:  Solving for Uy, Initial residual = 0.0011625, Final residual = 6.14346e-08, No Iterations 2
DICPCG:  Solving for p, Initial residual = 0.00450851, Final residual = 9.63776e-08, No Iterations 141
time step continuity errors : sum local = 5.28385e-15, global = -4.96988e-17, cumulative = 5.80896e-15
DICPCG:  Solving for p, Initial residual = 0.000519074, Final residual = 8.53302e-08, No Iterations 122
time step continuity errors : sum local = 4.65405e-15, global = -1.01227e-17, cumulative = 5.79884e-15
ExecutionTime = 18.47 s  ClockTime = 20 s

forces forces write:
    sum of forces:
        pressure : (0 0 0)
        viscous  : (0 0 0)
        porous   : (0 0 0)
    sum of moments:
        pressure : (0 0 0)
        viscous  : (0 0 0)
        porous   : (0 0 0)

forceCoeffs forceCoeffs write:
    Cm    = 0
    Cd    = 0
    Cl    = 0
    Cl(f) = 0
    Cl(r) = 0

Time = 0.0144

Courant Number mean: 0.00197061 max: 0.0158488
smoothSolver:  Solving for Ux, Initial residual = 0.000306841, Final residual = 4.94031e-08, No Iterations 2
smoothSolver:  Solving for Uy, Initial residual = 0.00115125, Final residual = 6.0557e-08, No Iterations 2
DICPCG:  Solving for p, Initial residual = 0.00398321, Final residual = 9.18044e-08, No Iterations 141
time step continuity errors : sum local = 4.9968e-15, global = -5.29669e-17, cumulative = 5.74588e-15
DICPCG:  Solving for p, Initial residual = 0.000506013, Final residual = 8.36713e-08, No Iterations 122
time step continuity errors : sum local = 4.53408e-15, global = -9.55173e-18, cumulative = 5.73632e-15
ExecutionTime = 18.68 s  ClockTime = 20 s

forces forces write:
    sum of forces:
        pressure : (0 0 0)
        viscous  : (0 0 0)
        porous   : (0 0 0)
    sum of moments:
        pressure : (0 0 0)
        viscous  : (0 0 0)
        porous   : (0 0 0)

forceCoeffs forceCoeffs write:
    Cm    = 0
    Cd    = 0
    Cl    = 0
    Cl(f) = 0
    Cl(r) = 0

Time = 0.0146

Courant Number mean: 0.00197055 max: 0.0158266
smoothSolver:  Solving for Ux, Initial residual = 0.000301768, Final residual = 4.84257e-08, No Iterations 2
smoothSolver:  Solving for Uy, Initial residual = 0.00113994, Final residual = 5.96985e-08, No Iterations 2
DICPCG:  Solving for p, Initial residual = 0.00380308, Final residual = 9.01799e-08, No Iterations 141
time step continuity errors : sum local = 4.87522e-15, global = -5.01904e-17, cumulative = 5.68613e-15
DICPCG:  Solving for p, Initial residual = 0.000494948, Final residual = 8.74129e-08, No Iterations 122
time step continuity errors : sum local = 4.70358e-15, global = -7.84135e-18, cumulative = 5.67829e-15
ExecutionTime = 18.89 s  ClockTime = 20 s

forces forces write:
    sum of forces:
        pressure : (0 0 0)
        viscous  : (0 0 0)
        porous   : (0 0 0)
    sum of moments:
        pressure : (0 0 0)
        viscous  : (0 0 0)
        porous   : (0 0 0)

forceCoeffs forceCoeffs write:
    Cm    = 0
    Cd    = 0
    Cl    = 0
    Cl(f) = 0
    Cl(r) = 0

Time = 0.0148

Courant Number mean: 0.00197049 max: 0.0158091
smoothSolver:  Solving for Ux, Initial residual = 0.000296853, Final residual = 4.74796e-08, No Iterations 2
smoothSolver:  Solving for Uy, Initial residual = 0.00112904, Final residual = 5.88618e-08, No Iterations 2
DICPCG:  Solving for p, Initial residual = 0.00360461, Final residual = 8.87877e-08, No Iterations 141
time step continuity errors : sum local = 4.76693e-15, global = -5.0154e-17, cumulative = 5.62814e-15
[...]
DICPCG:  Solving for p, Initial residual = 1.89027e-05, Final residual = 9.27994e-08, No Iterations 99
time step continuity errors : sum local = 2.41339e-15, global = 2.55347e-18, cumulative = 5.30756e-14
ExecutionTime = 555.58 s  ClockTime = 557 s

forces forces write:
    sum of forces:
        pressure : (0 0 0)
        viscous  : (0 0 0)
        porous   : (0 0 0)
    sum of moments:
        pressure : (0 0 0)
        viscous  : (0 0 0)
        porous   : (0 0 0)

forceCoeffs forceCoeffs write:
    Cm    = 0
    Cd    = 0
    Cl    = 0
    Cl(f) = 0
    Cl(r) = 0

Time = 0.594

Courant Number mean: 0.00194321 max: 0.0111422
smoothSolver:  Solving for Ux, Initial residual = 8.51788e-06, Final residual = 1.47905e-08, No Iterations 1
smoothSolver:  Solving for Uy, Initial residual = 7.80817e-05, Final residual = 4.84302e-08, No Iterations 1
DICPCG:  Solving for p, Initial residual = 8.44878e-05, Final residual = 8.74466e-08, No Iterations 104
time step continuity errors : sum local = 2.27406e-15, global = 5.69579e-18, cumulative = 5.30813e-14
DICPCG:  Solving for p, Initial residual = 1.88797e-05, Final residual = 9.11791e-08, No Iterations 99
time step continuity errors : sum local = 2.37127e-15, global = 4.46514e-18, cumulative = 5.30857e-14
ExecutionTime = 555.77 s  ClockTime = 557 s

forces forces write:
    sum of forces:
        pressure : (0 0 0)
        viscous  : (0 0 0)
        porous   : (0 0 0)
    sum of moments:
        pressure : (0 0 0)
        viscous  : (0 0 0)
        porous   : (0 0 0)

forceCoeffs forceCoeffs write:
    Cm    = 0
    Cd    = 0
    Cl    = 0
    Cl(f) = 0
    Cl(r) = 0

Time = 0.5942

Courant Number mean: 0.00194321 max: 0.0111419
smoothSolver:  Solving for Ux, Initial residual = 8.51579e-06, Final residual = 1.47828e-08, No Iterations 1
smoothSolver:  Solving for Uy, Initial residual = 7.80639e-05, Final residual = 4.841e-08, No Iterations 1
DICPCG:  Solving for p, Initial residual = 8.49785e-05, Final residual = 8.67867e-08, No Iterations 104
time step continuity errors : sum local = 2.25692e-15, global = 5.5849e-18, cumulative = 5.30913e-14
DICPCG:  Solving for p, Initial residual = 1.8884e-05, Final residual = 9.24466e-08, No Iterations 99
time step continuity errors : sum local = 2.40426e-15, global = 2.27296e-18, cumulative = 5.30936e-14
ExecutionTime = 555.94 s  ClockTime = 557 s

forces forces write:
    sum of forces:
        pressure : (0 0 0)
        viscous  : (0 0 0)
        porous   : (0 0 0)
    sum of moments:
        pressure : (0 0 0)
        viscous  : (0 0 0)
        porous   : (0 0 0)

forceCoeffs forceCoeffs write:
    Cm    = 0
    Cd    = 0
    Cl    = 0
    Cl(f) = 0
    Cl(r) = 0

Time = 0.5944

Courant Number mean: 0.0019432 max: 0.0111417
smoothSolver:  Solving for Ux, Initial residual = 8.5137e-06, Final residual = 1.47751e-08, No Iterations 1
smoothSolver:  Solving for Uy, Initial residual = 7.8046e-05, Final residual = 4.83899e-08, No Iterations 1
DICPCG:  Solving for p, Initial residual = 8.53122e-05, Final residual = 8.71284e-08, No Iterations 104
time step continuity errors : sum local = 2.26583e-15, global = 5.64036e-18, cumulative = 5.30992e-14
DICPCG:  Solving for p, Initial residual = 1.88962e-05, Final residual = 9.07721e-08, No Iterations 99
time step continuity errors : sum local = 2.36074e-15, global = 4.76562e-18, cumulative = 5.3104e-14
ExecutionTime = 556.13 s  ClockTime = 557 s

forces forces write:
    sum of forces:
        pressure : (0 0 0)
        viscous  : (0 0 0)
        porous   : (0 0 0)
    sum of moments:
        pressure : (0 0 0)
        viscous  : (0 0 0)
        porous   : (0 0 0)

forceCoeffs forceCoeffs write:
    Cm    = 0
    Cd    = 0
    Cl    = 0
    Cl(f) = 0
    Cl(r) = 0

Time = 0.5946

Courant Number mean: 0.0019432 max: 0.0111415
smoothSolver:  Solving for Ux, Initial residual = 8.51162e-06, Final residual = 1.47673e-08, No Iterations 1
smoothSolver:  Solving for Uy, Initial residual = 7.80282e-05, Final residual = 4.83698e-08, No Iterations 1
DICPCG:  Solving for p, Initial residual = 9.07316e-05, Final residual = 9.0512e-08, No Iterations 104
time step continuity errors : sum local = 2.35384e-15, global = 5.58795e-18, cumulative = 5.31096e-14
DICPCG:  Solving for p, Initial residual = 1.93889e-05, Final residual = 9.32946e-08, No Iterations 99
time step continuity errors : sum local = 2.42634e-15, global = -2.68281e-18, cumulative = 5.31069e-14
ExecutionTime = 556.3 s  ClockTime = 558 s

forces forces write:
    sum of forces:
        pressure : (0 0 0)
        viscous  : (0 0 0)
        porous   : (0 0 0)
    sum of moments:
        pressure : (0 0 0)
        viscous  : (0 0 0)
        porous   : (0 0 0)

forceCoeffs forceCoeffs write:
    Cm    = 0
    Cd    = 0
    Cl    = 0
    Cl(f) = 0
    Cl(r) = 0

Time = 0.5948

Courant Number mean: 0.0019432 max: 0.0111413
smoothSolver:  Solving for Ux, Initial residual = 8.50954e-06, Final residual = 1.47596e-08, No Iterations 1
smoothSolver:  Solving for Uy, Initial residual = 7.80103e-05, Final residual = 4.83497e-08, No Iterations 1
DICPCG:  Solving for p, Initial residual = 8.91806e-05, Final residual = 8.80546e-08, No Iterations 104
time step continuity errors : sum local = 2.28994e-15, global = 6.05677e-18, cumulative = 5.3113e-14
DICPCG:  Solving for p, Initial residual = 1.90585e-05, Final residual = 9.14922e-08, No Iterations 99
time step continuity errors : sum local = 2.37948e-15, global = 2.77232e-18, cumulative = 5.31157e-14
ExecutionTime = 556.49 s  ClockTime = 558 s

forces forces write:
    sum of forces:
        pressure : (0 0 0)
        viscous  : (0 0 0)
        porous   : (0 0 0)
    sum of moments:
        pressure : (0 0 0)
        viscous  : (0 0 0)
        porous   : (0 0 0)

forceCoeffs forceCoeffs write:
    Cm    = 0
    Cd    = 0
    Cl    = 0
    Cl(f) = 0
    Cl(r) = 0

Time = 0.595

Courant Number mean: 0.0019432 max: 0.0111411
smoothSolver:  Solving for Ux, Initial residual = 8.50746e-06, Final residual = 1.47519e-08, No Iterations 1
smoothSolver:  Solving for Uy, Initial residual = 7.79925e-05, Final residual = 4.83296e-08, No Iterations 1
DICPCG:  Solving for p, Initial residual = 8.88416e-05, Final residual = 8.70558e-08, No Iterations 104
time step continuity errors : sum local = 2.26399e-15, global = 5.25269e-18, cumulative = 5.3121e-14
DICPCG:  Solving for p, Initial residual = 1.89636e-05, Final residual = 9.29609e-08, No Iterations 99
time step continuity errors : sum local = 2.4177e-15, global = 2.19688e-18, cumulative = 5.31232e-14
ExecutionTime = 556.67 s  ClockTime = 558 s

forces forces write:
    sum of forces:
        pressure : (0 0 0)
        viscous  : (0 0 0)
        porous   : (0 0 0)
    sum of moments:
        pressure : (0 0 0)
        viscous  : (0 0 0)
        porous   : (0 0 0)

forceCoeffs forceCoeffs write:
    Cm    = 0
    Cd    = 0
    Cl    = 0
    Cl(f) = 0
    Cl(r) = 0

Time = 0.5952

Courant Number mean: 0.0019432 max: 0.0111409
smoothSolver:  Solving for Ux, Initial residual = 8.50538e-06, Final residual = 1.47442e-08, No Iterations 1
smoothSolver:  Solving for Uy, Initial residual = 7.79746e-05, Final residual = 4.83095e-08, No Iterations 1
DICPCG:  Solving for p, Initial residual = 9.01455e-05, Final residual = 8.77151e-08, No Iterations 104
time step continuity errors : sum local = 2.28117e-15, global = 5.48009e-18, cumulative = 5.31287e-14
DICPCG:  Solving for p, Initial residual = 1.90244e-05, Final residual = 9.16232e-08, No Iterations 99
time step continuity errors : sum local = 2.38295e-15, global = 3.03874e-18, cumulative = 5.31317e-14
ExecutionTime = 556.84 s  ClockTime = 558 s

forces forces write:
    sum of forces:
        pressure : (0 0 0)
        viscous  : (0 0 0)
        porous   : (0 0 0)
    sum of moments:
        pressure : (0 0 0)
        viscous  : (0 0 0)
        porous   : (0 0 0)

forceCoeffs forceCoeffs write:
    Cm    = 0
    Cd    = 0
    Cl    = 0
    Cl(f) = 0
    Cl(r) = 0

Time = 0.5954

Courant Number mean: 0.0019432 max: 0.0111407
smoothSolver:  Solving for Ux, Initial residual = 8.5033e-06, Final residual = 1.47365e-08, No Iterations 1
smoothSolver:  Solving for Uy, Initial residual = 7.79568e-05, Final residual = 4.82893e-08, No Iterations 1
DICPCG:  Solving for p, Initial residual = 9.15304e-05, Final residual = 8.65898e-08, No Iterations 104
time step continuity errors : sum local = 2.25193e-15, global = 5.08323e-18, cumulative = 5.31368e-14
DICPCG:  Solving for p, Initial residual = 1.90624e-05, Final residual = 9.22251e-08, No Iterations 99
time step continuity errors : sum local = 2.39864e-15, global = 1.05567e-18, cumulative = 5.31378e-14
ExecutionTime = 557.01 s  ClockTime = 558 s

forces forces write:
    sum of forces:
        pressure : (0 0 0)
        viscous  : (0 0 0)
        porous   : (0 0 0)
    sum of moments:
        pressure : (0 0 0)
        viscous  : (0 0 0)
        porous   : (0 0 0)

forceCoeffs forceCoeffs write:
    Cm    = 0
    Cd    = 0
    Cl    = 0
    Cl(f) = 0
    Cl(r) = 0

Time = 0.5956

Courant Number mean: 0.0019432 max: 0.0111405
smoothSolver:  Solving for Ux, Initial residual = 8.50123e-06, Final residual = 1.47288e-08, No Iterations 1
smoothSolver:  Solving for Uy, Initial residual = 7.79389e-05, Final residual = 4.82689e-08, No Iterations 1
DICPCG:  Solving for p, Initial residual = 9.36954e-05, Final residual = 8.41215e-08, No Iterations 104
time step continuity errors : sum local = 2.18778e-15, global = 3.987e-18, cumulative = 5.31418e-14
DICPCG:  Solving for p, Initial residual = 1.91422e-05, Final residual = 9.21276e-08, No Iterations 99
time step continuity errors : sum local = 2.39616e-15, global = 7.53554e-19, cumulative = 5.31426e-14
ExecutionTime = 557.18 s  ClockTime = 558 s

forces forces write:
    sum of forces:
        pressure : (0 0 0)
        viscous  : (0 0 0)
        porous   : (0 0 0)
    sum of moments:
        pressure : (0 0 0)
        viscous  : (0 0 0)
        porous   : (0 0 0)

forceCoeffs forceCoeffs write:
    Cm    = 0
    Cd    = 0
    Cl    = 0
    Cl(f) = 0
    Cl(r) = 0

Time = 0.5958

Courant Number mean: 0.0019432 max: 0.0111402
smoothSolver:  Solving for Ux, Initial residual = 8.49915e-06, Final residual = 1.47211e-08, No Iterations 1
smoothSolver:  Solving for Uy, Initial residual = 7.79211e-05, Final residual = 4.82484e-08, No Iterations 1
DICPCG:  Solving for p, Initial residual = 9.70518e-05, Final residual = 8.62486e-08, No Iterations 104
time step continuity errors : sum local = 2.24316e-15, global = 3.19892e-18, cumulative = 5.31458e-14
DICPCG:  Solving for p, Initial residual = 1.92766e-05, Final residual = 9.38804e-08, No Iterations 99
time step continuity errors : sum local = 2.44181e-15, global = -2.66578e-18, cumulative = 5.31431e-14
ExecutionTime = 557.36 s  ClockTime = 559 s

forces forces write:
    sum of forces:
        pressure : (0 0 0)
        viscous  : (0 0 0)
        porous   : (0 0 0)
    sum of moments:
        pressure : (0 0 0)
        viscous  : (0 0 0)
        porous   : (0 0 0)

forceCoeffs forceCoeffs write:
    Cm    = 0
    Cd    = 0
    Cl    = 0
    Cl(f) = 0
    Cl(r) = 0

Time = 0.596

Courant Number mean: 0.00194319 max: 0.01114
smoothSolver:  Solving for Ux, Initial residual = 8.49708e-06, Final residual = 1.47135e-08, No Iterations 1
smoothSolver:  Solving for Uy, Initial residual = 7.79032e-05, Final residual = 4.82276e-08, No Iterations 1
DICPCG:  Solving for p, Initial residual = 0.000103211, Final residual = 8.72419e-08, No Iterations 104
time step continuity errors : sum local = 2.26907e-15, global = -1.96999e-19, cumulative = 5.31429e-14
DICPCG:  Solving for p, Initial residual = 1.95367e-05, Final residual = 9.35877e-08, No Iterations 99
time step continuity errors : sum local = 2.43431e-15, global = -4.25699e-18, cumulative = 5.31387e-14
ExecutionTime = 557.54 s  ClockTime = 559 s

forces forces write:
    sum of forces:
        pressure : (0 0 0)
        viscous  : (0 0 0)
        porous   : (0 0 0)
    sum of moments:
        pressure : (0 0 0)
        viscous  : (0 0 0)
        porous   : (0 0 0)

forceCoeffs forceCoeffs write:
    Cm    = 0
    Cd    = 0
    Cl    = 0
    Cl(f) = 0
    Cl(r) = 0

Time = 0.5962

Courant Number mean: 0.00194319 max: 0.0111398
smoothSolver:  Solving for Ux, Initial residual = 8.49501e-06, Final residual = 1.47058e-08, No Iterations 1
smoothSolver:  Solving for Uy, Initial residual = 7.78852e-05, Final residual = 4.82061e-08, No Iterations 1
DICPCG:  Solving for p, Initial residual = 0.000117331, Final residual = 8.54307e-08, No Iterations 104
time step continuity errors : sum local = 2.22208e-15, global = -2.69053e-18, cumulative = 5.3136e-14
DICPCG:  Solving for p, Initial residual = 2.01955e-05, Final residual = 9.6074e-08, No Iterations 99
time step continuity errors : sum local = 2.49914e-15, global = -1.0718e-17, cumulative = 5.31253e-14
ExecutionTime = 557.71 s  ClockTime = 559 s

forces forces write:
    sum of forces:
        pressure : (0 0 0)
        viscous  : (0 0 0)
        porous   : (0 0 0)
    sum of moments:
        pressure : (0 0 0)
        viscous  : (0 0 0)
        porous   : (0 0 0)

forceCoeffs forceCoeffs write:
    Cm    = 0
    Cd    = 0
    Cl    = 0
    Cl(f) = 0
    Cl(r) = 0

Time = 0.5964

Courant Number mean: 0.00194319 max: 0.0111396
smoothSolver:  Solving for Ux, Initial residual = 8.49296e-06, Final residual = 1.46981e-08, No Iterations 1
smoothSolver:  Solving for Uy, Initial residual = 7.7867e-05, Final residual = 4.81829e-08, No Iterations 1
DICPCG:  Solving for p, Initial residual = 0.000107887, Final residual = 7.96306e-08, No Iterations 105
time step continuity errors : sum local = 2.07125e-15, global = 1.14798e-17, cumulative = 5.31367e-14
DICPCG:  Solving for p, Initial residual = 2.01852e-05, Final residual = 9.84134e-08, No Iterations 99
time step continuity errors : sum local = 2.55989e-15, global = 2.06368e-17, cumulative = 5.31574e-14
ExecutionTime = 557.89 s  ClockTime = 559 s

forces forces write:
    sum of forces:
        pressure : (0 0 0)
        viscous  : (0 0 0)
        porous   : (0 0 0)
    sum of moments:
        pressure : (0 0 0)
        viscous  : (0 0 0)
        porous   : (0 0 0)

forceCoeffs forceCoeffs write:
    Cm    = 0
    Cd    = 0
    Cl    = 0
    Cl(f) = 0
    Cl(r) = 0

Time = 0.5966

Courant Number mean: 0.00194319 max: 0.0111394
smoothSolver:  Solving for Ux, Initial residual = 8.49087e-06, Final residual = 1.46904e-08, No Iterations 1
smoothSolver:  Solving for Uy, Initial residual = 7.78501e-05, Final residual = 4.81687e-08, No Iterations 1
DICPCG:  Solving for p, Initial residual = 0.000105627, Final residual = 7.64807e-08, No Iterations 105
time step continuity errors : sum local = 1.98923e-15, global = 9.06885e-18, cumulative = 5.31664e-14
DICPCG:  Solving for p, Initial residual = 1.99638e-05, Final residual = 7.95489e-08, No Iterations 100
time step continuity errors : sum local = 2.0691e-15, global = 2.64717e-17, cumulative = 5.31929e-14
ExecutionTime = 558.06 s  ClockTime = 559 s

forces forces write:
    sum of forces:
        pressure : (0 0 0)
        viscous  : (0 0 0)
        porous   : (0 0 0)
    sum of moments:
        pressure : (0 0 0)
        viscous  : (0 0 0)
        porous   : (0 0 0)

forceCoeffs forceCoeffs write:
    Cm    = 0
    Cd    = 0
    Cl    = 0
    Cl(f) = 0
    Cl(r) = 0

Time = 0.5968

Courant Number mean: 0.00194319 max: 0.0111392
smoothSolver:  Solving for Ux, Initial residual = 8.48878e-06, Final residual = 1.46828e-08, No Iterations 1
smoothSolver:  Solving for Uy, Initial residual = 7.7833e-05, Final residual = 4.81533e-08, No Iterations 1
DICPCG:  Solving for p, Initial residual = 8.98636e-05, Final residual = 9.10685e-08, No Iterations 104
time step continuity errors : sum local = 2.36859e-15, global = 6.97092e-18, cumulative = 5.31999e-14
DICPCG:  Solving for p, Initial residual = 1.90797e-05, Final residual = 9.49957e-08, No Iterations 99
time step continuity errors : sum local = 2.47085e-15, global = 8.66848e-18, cumulative = 5.32085e-14
ExecutionTime = 558.24 s  ClockTime = 559 s

forces forces write:
    sum of forces:
        pressure : (0 0 0)
        viscous  : (0 0 0)
        porous   : (0 0 0)
    sum of moments:
        pressure : (0 0 0)
        viscous  : (0 0 0)
        porous   : (0 0 0)

forceCoeffs forceCoeffs write:
    Cm    = 0
    Cd    = 0
    Cl    = 0
    Cl(f) = 0
    Cl(r) = 0

Time = 0.597

Courant Number mean: 0.00194319 max: 0.011139
smoothSolver:  Solving for Ux, Initial residual = 8.48671e-06, Final residual = 1.46752e-08, No Iterations 1
smoothSolver:  Solving for Uy, Initial residual = 7.78154e-05, Final residual = 4.81349e-08, No Iterations 1
DICPCG:  Solving for p, Initial residual = 0.000133441, Final residual = 9.17621e-08, No Iterations 105
time step continuity errors : sum local = 2.38649e-15, global = 1.81849e-17, cumulative = 5.32267e-14
DICPCG:  Solving for p, Initial residual = 2.14861e-05, Final residual = 9.96506e-08, No Iterations 99
time step continuity errors : sum local = 2.59166e-15, global = 2.005e-17, cumulative = 5.32468e-14
ExecutionTime = 558.41 s  ClockTime = 560 s

forces forces write:
    sum of forces:
        pressure : (0 0 0)
        viscous  : (0 0 0)
        porous   : (0 0 0)
    sum of moments:
        pressure : (0 0 0)
        viscous  : (0 0 0)
        porous   : (0 0 0)

forceCoeffs forceCoeffs write:
    Cm    = 0
    Cd    = 0
    Cl    = 0
    Cl(f) = 0
    Cl(r) = 0

Time = 0.5972

Courant Number mean: 0.00194319 max: 0.0111388
smoothSolver:  Solving for Ux, Initial residual = 8.48461e-06, Final residual = 1.46676e-08, No Iterations 1
smoothSolver:  Solving for Uy, Initial residual = 7.77988e-05, Final residual = 4.8123e-08, No Iterations 1
DICPCG:  Solving for p, Initial residual = 8.97731e-05, Final residual = 8.72432e-08, No Iterations 104
time step continuity errors : sum local = 2.26885e-15, global = 4.65197e-18, cumulative = 5.32514e-14
DICPCG:  Solving for p, Initial residual = 1.88297e-05, Final residual = 9.22177e-08, No Iterations 99
time step continuity errors : sum local = 2.39834e-15, global = 8.90302e-19, cumulative = 5.32523e-14
ExecutionTime = 558.58 s  ClockTime = 560 s

forces forces write:
    sum of forces:
        pressure : (0 0 0)
        viscous  : (0 0 0)
        porous   : (0 0 0)
    sum of moments:
        pressure : (0 0 0)
        viscous  : (0 0 0)
        porous   : (0 0 0)

forceCoeffs forceCoeffs write:
    Cm    = 0
    Cd    = 0
    Cl    = 0
    Cl(f) = 0
    Cl(r) = 0

Time = 0.5974

Courant Number mean: 0.00194318 max: 0.0111386
smoothSolver:  Solving for Ux, Initial residual = 8.48254e-06, Final residual = 1.46599e-08, No Iterations 1
smoothSolver:  Solving for Uy, Initial residual = 7.77809e-05, Final residual = 4.81022e-08, No Iterations 1
DICPCG:  Solving for p, Initial residual = 8.71764e-05, Final residual = 8.56094e-08, No Iterations 104
time step continuity errors : sum local = 2.22636e-15, global = 3.42027e-18, cumulative = 5.32557e-14
DICPCG:  Solving for p, Initial residual = 1.88598e-05, Final residual = 9.1751e-08, No Iterations 99
time step continuity errors : sum local = 2.38621e-15, global = -7.10364e-20, cumulative = 5.32557e-14
ExecutionTime = 558.76 s  ClockTime = 560 s

forces forces write:
    sum of forces:
        pressure : (0 0 0)
        viscous  : (0 0 0)
        porous   : (0 0 0)
    sum of moments:
        pressure : (0 0 0)
        viscous  : (0 0 0)
        porous   : (0 0 0)

forceCoeffs forceCoeffs write:
    Cm    = 0
    Cd    = 0
    Cl    = 0
    Cl(f) = 0
    Cl(r) = 0

Time = 0.5976

Courant Number mean: 0.00194318 max: 0.0111383
smoothSolver:  Solving for Ux, Initial residual = 8.48048e-06, Final residual = 1.46523e-08, No Iterations 1
smoothSolver:  Solving for Uy, Initial residual = 7.77629e-05, Final residual = 4.80814e-08, No Iterations 1
