/*---------------------------------------------------------------------------*\
  =========                 |
  \\      /  F ield         | OpenFOAM: The Open Source CFD Toolbox
   \\    /   O peration     | Website:  https://openfoam.org
    \\  /    A nd           | Version:  7
     \\/     M anipulation  |
\*---------------------------------------------------------------------------*/
Build  : 7-49b2b3b8b082
Exec   : checkMesh
Date   : Apr 14 2022
Time   : 01:35:14
Host   : "c405-034.stampede2.tacc.utexas.edu"
PID    : 169196
I/O    : uncollated
Case   : /work2/07705/jmj3957/stampede2/COE347FinalProject/Simulations/Incompressible/cylinder_test
nProcs : 1
sigFpe : Enabling floating point exception trapping (FOAM_SIGFPE).
fileModificationChecking : Monitoring run-time modified files using timeStampMaster (fileModificationSkew 10)
allowSystemOperations : Allowing user-supplied system call operations

// * * * * * * * * * * * * * * * * * * * * * * * * * * * * * * * * * * * * * //
Create time

Create polyMesh for time = 0

Time = 0

Mesh stats
    points:           24500
    internal points:  0
    faces:            48250
    internal faces:   23750
    cells:            12000
    faces per cell:   6
    boundary patches: 6
    point zones:      0
    face zones:       0
    cell zones:       0

Overall number of cells of each type:
    hexahedra:     12000
    prisms:        0
    wedges:        0
    pyramids:      0
    tet wedges:    0
    tetrahedra:    0
    polyhedra:     0

Checking topology...
    Boundary definition OK.
    Cell to face addressing OK.
    Point usage OK.
    Upper triangular ordering OK.
    Face vertices OK.
    Number of regions: 1 (OK).

Checking patch topology for multiply connected surfaces...
    Patch               Faces    Points   Surface topology                  
    inlet               80       162      ok (non-closed singly connected)  
    outlet              80       162      ok (non-closed singly connected)  
    airfoil             160      320      ok (non-closed singly connected)  
    top                 90       182      ok (non-closed singly connected)  
    bottom              90       182      ok (non-closed singly connected)  
    defaultFaces        24000    24500    ok (non-closed singly connected)  

Checking geometry...
    Overall domain bounding box (-4 -4 -0.05) (6 4 0.05)
    Mesh has 2 geometric (non-empty/wedge) directions (1 1 0)
    Mesh has 2 solution (non-empty) directions (1 1 0)
    All edges aligned with or perpendicular to non-empty directions.
    Boundary openness (-2.46353e-18 -5.51724e-19 5.52466e-17) OK.
    Max cell openness = 2.2396e-16 OK.
    Max aspect ratio = 28.231 OK.
    Minimum face area = 7.35094e-05. Maximum face area = 0.192281.  Face area magnitudes OK.
    Min volume = 7.35094e-06. Max volume = 0.0192281.  Total volume = 7.98448.  Cell volumes OK.
    Mesh non-orthogonality Max: 68.27 average: 20.77
    Non-orthogonality check OK.
    Face pyramids OK.
    Max skewness = 1.16668 OK.
    Coupled point location match (average 0) OK.

Mesh OK.

End

